$ WAVEWATCH III Point output post-processing
$ ------------------------------------------
  TIME  DT  999
$
  POINT
 -1
$
  ITYPE
  2 51
$
$ End of input file
