$ WAVEWATCH III Point output post-processing
$ ------------------------------------------
  TIME  DT  999
$
 -1
$
  FNAME
  0
  4
  T 150 
  2 
  0
  T
$
  2  
$
$ End of input file
