$ WAVEWATCH III Grid preprocessor input file
$ ------------------------------------------
  'NCEP GLW 2.5km LAMBERT CONFORMAL (SECTOR)'
$
  1.07  0.05  45  36  .5
$
   F T T T F T
$
  450. 150. 225. 15.
$
&SIN4 BETAMAX = 1.70 /
&SDS4 SDSCUM = 0. /
&SDB1 BJGAM = 0.8, BJALFA = 0.50 /
&SBT1 GAMMA = -0.034 /
&SNL3 NQDEF =  3, MSC =  0.00,  NSC = -3.50 /
&ANL3 QPARMS = 0.126, 0.000,  -1.0, 1.2000E+08, 0.0000E+00 ,
                0.237, 0.000,  -1.0, 0.8000E+08, 0.0000E+00 ,
                0.319, 0.000,  -1.0, 0.2500E+08, 0.0000E+00 /
&MISC FLAGTR = 0 /
$
END OF NAMELISTS
$
   'CURV'  T 'NONE'
31      91
$ Longitudes for GLW CURV grid
10 1. 0.  1  1 '(....)'  'NAME'  'lon_lc_2p5.dat'
286.00000000 286.02943799 286.05887397 286.08830796 286.11773994 286.14716991 286.17659788 286.20602383 286.23544777 286.26486969 286.29428960 286.32370748 286.35312333 286.38253716 286.41194896 286.44135873 286.47076646 286.50017216 286.52957581 286.55897742 286.58837699 286.61777451 286.64716998 286.67656340 286.70595476 286.73534406 286.76473130 286.79411649 286.82349960 286.85288065 286.88225962
286.00459785 286.03404208 286.06348430 286.09292452 286.12236273 286.15179894 286.18123314 286.21066532 286.24009549 286.26952363 286.29894976 286.32837387 286.35779595 286.38721600 286.41663402 286.44605000 286.47546395 286.50487586 286.53428573 286.56369356 286.59309934 286.62250307 286.65190475 286.68130438 286.71070195 286.74009745 286.76949090 286.79888229 286.82827160 286.85765885 286.88704403
286.00919770 286.03864817 286.06809663 286.09754308 286.12698753 286.15642998 286.18587041 286.21530882 286.24474522 286.27417960 286.30361195 286.33304229 286.36247059 286.39189687 286.42132111 286.45074332 286.48016349 286.50958162 286.53899770 286.56841175 286.59782374 286.62723369 286.65664158 286.68604741 286.71545119 286.74485291 286.77425256 286.80365015 286.83304568 286.86243913 286.89183050
286.01379955 286.04325626 286.07271096 286.10216366 286.13161435 286.16106302 286.19050969 286.21995434 286.24939697 286.27883758 286.30827617 286.33771273 286.36714726 286.39657976 286.42601023 286.45543866 286.48486506 286.51428941 286.54371172 286.57313198 286.60255019 286.63196635 286.66138046 286.69079251 286.72020250 286.74961043 286.77901629 286.80842009 286.83782182 286.86722147 286.89661906
286.01840340 286.04786635 286.07732730 286.10678624 286.13624317 286.16569808 286.19515099 286.22460188 286.25405074 286.28349759 286.31294241 286.34238520 286.37182597 286.40126470 286.43070139 286.46013605 286.48956867 286.51899925 286.54842778 286.57785426 286.60727869 286.63670107 286.66612140 286.69553966 286.72495587 286.75437001 286.78378209 286.81319210 286.84260003 286.87200590 286.90140969
286.02300925 286.05247845 286.08194564 286.11141083 286.14087400 286.17033516 286.19979431 286.22925143 286.25870654 286.28815962 286.31761068 286.34705971 286.37650670 286.40595166 286.43539459 286.46483548 286.49427433 286.52371113 286.55314588 286.58257859 286.61200925 286.64143785 286.67086439 286.70028888 286.72971130 286.75913166 286.78854995 286.81796617 286.84738032 286.87679240 286.90620239
286.02761710 286.05709255 286.08656599 286.11603743 286.14550685 286.17497425 286.20443964 286.23390301 286.26336436 286.29282368 286.32228097 286.35173624 286.38118947 286.41064067 286.44008983 286.46953695 286.49898203 286.52842506 286.55786604 286.58730497 286.61674186 286.64617668 286.67560945 286.70504015 286.73446880 286.76389537 286.79331988 286.82274232 286.85216268 286.88158097 286.91099718
286.03222696 286.06170866 286.09118836 286.12066604 286.15014171 286.17961536 286.20908700 286.23855661 286.26802420 286.29748976 286.32695330 286.35641481 286.38587428 286.41533171 286.44478711 286.47424046 286.50369177 286.53314103 286.56258825 286.59203341 286.62147652 286.65091757 286.68035656 286.70979349 286.73922836 286.76866116 286.79809189 286.82752054 286.85694712 286.88637163 286.91579405
286.03683883 286.06632678 286.09581273 286.12529666 286.15477858 286.18425849 286.21373637 286.24321223 286.27268607 286.30215788 286.33162766 286.36109541 286.39056112 286.42002479 286.44948643 286.47894602 286.50840356 286.53785906 286.56731251 286.59676390 286.62621324 286.65566052 286.68510574 286.71454890 286.74398999 286.77342901 286.80286596 286.83230084 286.86173364 286.89116436 286.92059300
286.04145270 286.07094691 286.10043911 286.12992930 286.15941748 286.18890363 286.21838777 286.24786988 286.27734997 286.30682802 286.33630405 286.36577804 286.39525000 286.42471991 286.45418779 286.48365362 286.51311740 286.54257914 286.57203882 286.60149645 286.63095202 286.66040553 286.68985698 286.71930637 286.74875369 286.77819893 286.80764211 286.83708321 286.86652223 286.89595918 286.92539404
286.04606857 286.07556905 286.10506751 286.13456396 286.16405839 286.19355080 286.22304119 286.25252955 286.28201589 286.31150020 286.34098247 286.37046271 286.39994091 286.42941707 286.45889119 286.48836327 286.51783329 286.54730126 286.57676719 286.60623105 286.63569286 286.66515260 286.69461029 286.72406590 286.75351945 286.78297093 286.81242033 286.84186766 286.87131291 286.90075608 286.93019716
286.05068646 286.08019320 286.10969792 286.13920063 286.16870132 286.19819999 286.22769664 286.25719126 286.28668385 286.31617441 286.34566293 286.37514942 286.40463387 286.43411628 286.46359664 286.49307496 286.52255123 286.55202545 286.58149761 286.61096771 286.64043576 286.66990174 286.69936566 286.72882751 286.75828729 286.78774500 286.81720063 286.84665419 286.87610566 286.90555506 286.93500237
286.05530636 286.08481936 286.11433035 286.14383932 286.17334627 286.20285120 286.23235411 286.26185499 286.29135383 286.32085065 286.35034543 286.37983817 286.40932887 286.43881753 286.46830414 286.49778871 286.52727122 286.55675168 286.58623009 286.61570643 286.64518072 286.67465294 286.70412310 286.73359119 286.76305720 286.79252114 286.82198301 286.85144280 286.88090050 286.91035613 286.93980966
286.05992827 286.08944754 286.11896479 286.14848003 286.17799325 286.20750444 286.23701361 286.26652075 286.29602585 286.32552893 286.35502996 286.38452896 286.41402591 286.44352082 286.47301369 286.50250450 286.53199327 286.56147997 286.59096463 286.62044722 286.64992775 286.67940621 286.70888261 286.73835693 286.76782919 286.79729937 286.82676747 286.85623349 286.88569743 286.91515928 286.94461904
286.06455219 286.09407773 286.12360126 286.15312276 286.18264225 286.21215971 286.24167514 286.27118854 286.30069991 286.33020924 286.35971653 286.38922179 286.41872500 286.44822617 286.47772528 286.50722235 286.53671737 286.56621032 286.59570122 286.62519006 286.65467684 286.68416154 286.71364418 286.74312475 286.77260325 286.80207967 286.83155400 286.86102626 286.89049643 286.91996452 286.94943052
286.06917813 286.09870994 286.12823974 286.15776752 286.18729327 286.21681700 286.24633870 286.27585836 286.30537599 286.33489159 286.36440515 286.39391666 286.42342613 286.45293356 286.48243893 286.51194225 286.54144352 286.57094273 286.60043988 286.62993497 286.65942799 286.68891895 286.71840783 286.74789465 286.77737938 286.80686204 286.83634262 286.86582112 286.89529753 286.92477185 286.95424408
286.07380608 286.10334417 286.13288025 286.16241430 286.19194632 286.22147632 286.25100429 286.28053022 286.31005412 286.33957598 286.36909580 286.39861358 286.42812931 286.45764300 286.48715463 286.51666421 286.54617173 286.57567720 286.60518060 286.63468194 286.66418122 286.69367842 286.72317356 286.75266661 286.78215760 286.81164650 286.84113332 286.87061806 286.90010071 286.92958127 286.95905974
286.07843605 286.10798042 286.13752277 286.16706310 286.19660140 286.22613767 286.25567191 286.28520411 286.31473428 286.34426241 286.37378850 286.40331254 286.43283454 286.46235449 286.49187238 286.52138822 286.55090200 286.58041373 286.60992339 286.63943098 286.66893651 286.69843997 286.72794135 286.75744066 286.78693789 286.81643304 286.84592611 286.87541709 286.90490599 286.93439279 286.96387750
286.08306804 286.11261869 286.14216732 286.17171393 286.20125850 286.23080105 286.26034156 286.28988004 286.31941648 286.34895088 286.37848324 286.40801355 286.43754182 286.46706803 286.49659219 286.52611429 286.55563433 286.58515232 286.61466824 286.64418209 286.67369387 286.70320358 286.73271122 286.76221678 286.79172027 286.82122167 286.85072098 286.88021821 286.90971335 286.93920640 286.96869735
286.08770205 286.11725898 286.14681390 286.17636678 286.20591764 286.23546647 286.26501326 286.29455801 286.32410073 286.35364140 286.38318003 286.41271661 286.44225114 286.47178362 286.50131405 286.53084242 286.56036873 286.58989297 286.61941515 286.64893526 286.67845331 286.70796928 286.73748317 286.76699499 286.79650472 286.82601237 286.85551794 286.88502142 286.91452280 286.94402210 286.97351930
286.09233808 286.12190130 286.15146250 286.18102167 286.21057881 286.24013391 286.26968699 286.29923802 286.32878701 286.35833396 286.38787886 286.41742172 286.44696252 286.47650128 286.50603797 286.53557261 286.56510518 286.59463569 286.62416414 286.65369051 286.68321481 286.71273704 286.74225720 286.77177527 286.80129126 286.83080517 286.86031699 286.88982672 286.91933435 286.94883990 286.97834334
286.09697613 286.12654564 286.15611313 286.18567858 286.21524201 286.24480340 286.27436275 286.30392007 286.33347534 286.36302857 286.39257975 286.42212888 286.45167596 286.48122098 286.51076395 286.54030486 286.56984370 286.59938048 286.62891519 286.65844783 286.68797840 286.71750689 286.74703330 286.77655763 286.80607988 286.83560005 286.86511812 286.89463411 286.92414800 286.95365979 286.98316949
286.10161621 286.13119201 286.16076578 286.19033753 286.21990724 286.24947492 286.27904056 286.30860416 286.33816571 286.36772522 286.39728268 286.42683809 286.45639145 286.48594275 286.51549199 286.54503917 286.57458428 286.60412733 286.63366831 286.66320722 286.69274405 286.72227881 286.75181149 286.78134208 286.81087059 286.84039702 286.86992135 286.89944359 286.92896374 286.95848179 286.98799773
286.10625831 286.13584040 286.16542047 286.19499851 286.22457451 286.25414848 286.28372040 286.31329029 286.34285813 286.37242392 286.40198766 286.43154936 286.46110899 286.49066657 286.52022209 286.54977554 286.57932693 286.60887626 286.63842351 286.66796869 286.69751179 286.72705281 286.75659176 286.78612862 286.81566339 286.84519608 286.87472667 286.90425517 286.93378158 286.96330588 286.99282808
286.11090243 286.14049083 286.17007719 286.19966152 286.22924382 286.25882408 286.28840229 286.31797847 286.34755259 286.37712467 286.40669470 286.43626268 286.46582859 286.49539245 286.52495425 286.55451398 286.58407165 286.61362725 286.64318077 286.67273223 286.70228160 286.73182890 286.76137411 286.79091724 286.82045828 286.84999723 286.87953408 286.90906885 286.93860151 286.96813208 286.99766054
286.11554859 286.14514328 286.17473594 286.20432657 286.23391516 286.26350172 286.29308622 286.32266869 286.35224911 286.38182748 286.41140379 286.44097805 286.47055025 286.50012040 286.52968848 286.55925449 286.58881844 286.61838031 286.64794012 286.67749784 286.70705349 286.73660706 286.76615854 286.79570794 286.82525525 286.85480047 286.88434359 286.91388462 286.94342355 286.97296038 287.00249510
286.12019677 286.14979777 286.17939673 286.20899366 286.23858855 286.26818140 286.29777220 286.32736096 286.35694767 286.38653233 286.41611494 286.44569549 286.47527398 286.50485041 286.53442477 286.56399707 286.59356730 286.62313545 286.65270154 286.68226554 286.71182747 286.74138731 286.77094507 286.80050074 286.83005432 286.85960581 286.88915520 286.91870249 286.94824769 286.97779078 287.00733176
286.12484699 286.15445429 286.18405955 286.21366278 286.24326397 286.27286312 286.30246022 286.33205528 286.36164829 286.39123924 286.42082814 286.45041498 286.47999976 286.50958248 286.53916313 286.56874171 286.59831823 286.62789267 286.65746503 286.68703532 286.71660352 286.74616964 286.77573368 286.80529562 286.83485548 286.86441324 286.89396890 286.92352247 286.95307393 286.98262329 287.01217054
286.12949923 286.15911284 286.18872441 286.21833395 286.24794144 286.27754689 286.30715029 286.33675165 286.36635095 286.39594820 286.42554340 286.45513653 286.48472761 286.51431661 286.54390356 286.57348843 286.60307123 286.63265196 286.66223060 286.69180717 286.72138166 286.75095406 286.78052438 286.81009260 286.83965873 286.86922277 286.89878470 286.92834454 286.95790227 286.98745790 287.01701142
286.13415351 286.16377343 286.19339131 286.22300715 286.25262095 286.28223270 286.31184241 286.34145007 286.37105567 286.40065922 286.43026072 286.45986015 286.48945752 286.51905282 286.54864605 286.57823722 286.60782631 286.63741332 286.66699826 286.69658111 286.72616188 286.75574057 286.78531717 286.81489167 286.84446408 286.87403439 286.90360261 286.93316872 286.96273273 286.99229463 287.02185442
286.13880982 286.16843605 286.19806025 286.22768240 286.25730250 286.28692057 286.31653658 286.34615054 286.37576245 286.40537230 286.43498009 286.46458582 286.49418949 286.52379109 286.55339062 286.58298808 286.61258346 286.64217677 286.67176799 286.70135714 286.73094420 286.76052917 286.79011205 286.81969283 286.84927152 286.87884812 286.90842261 286.93799500 286.96756528 286.99713346 287.02669952
286.14346817 286.17310072 286.20273122 286.23235969 286.26198611 286.29161048 286.32123280 286.35085307 286.38047128 286.41008744 286.43970153 286.46931357 286.49892353 286.52853143 286.55813726 286.58774101 286.61734269 286.64694229 286.67653981 286.70613525 286.73572859 286.76531985 286.79490902 286.82449609 286.85408107 286.88366395 286.91324472 286.94282339 286.97239995 287.00197440 287.03154675
286.14812856 286.17776742 286.20740424 286.23703902 286.26667175 286.29630244 286.32593107 286.35555765 286.38518217 286.41480464 286.44442504 286.47404337 286.50365964 286.53327385 286.56288597 286.59249603 286.62210400 286.65170990 286.68131371 286.71091544 286.74051508 286.77011263 286.79970809 286.82930145 286.85889271 286.88848187 286.91806893 286.94765389 286.97723673 287.00681746 287.03639608
286.15279098 286.18243616 286.21207931 286.24172040 286.27135945 286.30099645 286.33063140 286.36026429 286.38989512 286.41952390 286.44915061 286.47877525 286.50839783 286.53801833 286.56763676 286.59725312 286.62686739 286.65647959 286.68608970 286.71569772 286.74530366 286.77490750 286.80450925 286.83410890 286.86370646 286.89330191 286.92289525 286.95248649 286.98207562 287.01166263 287.04124753
286.15745544 286.18710695 286.21675641 286.24640383 286.27604920 286.30569252 286.33533378 286.36497299 286.39461013 286.42424522 286.45387824 286.48350919 286.51313808 286.54276489 286.57238963 286.60201229 286.63163286 286.66125136 286.69086777 286.72048210 286.75009433 286.77970447 286.80931251 286.83891846 286.86852230 286.89812404 286.92772368 286.95732120 286.98691662 287.01650992 287.04610110
286.16212195 286.19177978 286.22143557 286.25108931 286.28074100 286.31039063 286.34003822 286.36968374 286.39932720 286.42896860 286.45860794 286.48824521 286.51788040 286.54751352 286.57714457 286.60677353 286.63640042 286.66602522 286.69564793 286.72526856 286.75488709 286.78450353 286.81411787 286.84373011 286.87334025 286.90294829 286.93255421 286.96215803 286.99175973 287.02135932 287.05095679
286.16679049 286.19645465 286.22611677 286.25577683 286.28543485 286.31509081 286.34474471 286.37439656 286.40404634 286.43369406 286.46333971 286.49298329 286.52262480 286.55226423 286.58190159 286.61153686 286.64117006 286.67080116 286.70043018 286.73005711 286.75968195 286.78930469 286.81892533 286.84854387 286.87816031 286.90777464 286.93738686 286.96699697 286.99660496 287.02621084 287.05581460
286.17146108 286.20113157 286.23080002 286.26046641 286.29013075 286.31979304 286.34945327 286.37911143 286.40876754 286.43842158 286.46807355 286.49772345 286.52737127 286.55701702 286.58666069 286.61630228 286.64594178 286.67557920 286.70521453 286.73484776 286.76447890 286.79410795 286.82373489 286.85335973 286.88298247 286.91260310 286.94222161 286.97183802 287.00145231 287.03106448 287.06067453
286.17613372 286.20581054 286.23548532 286.26515804 286.29482871 286.32449733 286.35416388 286.38382838 286.41349080 286.44315117 286.47280946 286.50246568 286.53211982 286.56177189 286.59142187 286.62106977 286.65071559 286.68035932 286.71000096 286.73964050 286.76927795 286.79891330 286.82854655 286.85817770 286.88780674 286.91743367 286.94705848 286.97668119 287.00630177 287.03592024 287.06553659
286.18080840 286.21049156 286.24017267 286.26985173 286.29952873 286.32920368 286.35887656 286.38854738 286.41821614 286.44788282 286.47754744 286.50720998 286.53687045 286.56652883 286.59618514 286.62583936 286.65549149 286.68514153 286.71478948 286.74443534 286.77407910 286.80372076 286.83336032 286.86299777 286.89263311 286.92226635 286.95189747 286.98152647 287.01115336 287.04077812 287.07040077
286.18548512 286.21517463 286.24486207 286.27454747 286.30423081 286.33391209 286.36359130 286.39326845 286.42294354 286.45261655 286.48228749 286.51195636 286.54162315 286.57128786 286.60095049 286.63061103 286.66026948 286.68992584 286.71958011 286.74923228 286.77888235 286.80853032 286.83817619 286.86781995 286.89746160 286.92710114 286.95673857 286.98637388 287.01600706 287.04563813 287.07526707
286.19016390 286.21985974 286.24955353 286.27924527 286.30893494 286.33862256 286.36830811 286.39799159 286.42767301 286.45735235 286.48702963 286.51670482 286.54637794 286.57604897 286.60571792 286.63538478 286.66504956 286.69471224 286.72437282 286.75403131 286.78368770 286.81334199 286.84299417 286.87264424 286.90229220 286.93193805 286.96158178 286.99122340 287.02086289 287.05050026 287.08013551
286.19484473 286.22454691 286.25424705 286.28394512 286.31364114 286.34333509 286.37302698 286.40271680 286.43240455 286.46209023 286.49177383 286.52145536 286.55113480 286.58081217 286.61048744 286.64016063 286.66983173 286.69950073 286.72916764 286.75883245 286.78849515 286.81815576 286.84781425 286.87747064 286.90712491 286.93677707 286.96642712 286.99607504 287.02572084 287.05536452 287.08500607
286.19952761 286.22923614 286.25894262 286.28864704 286.31834939 286.34804969 286.37774792 286.40744408 286.43713817 286.46683018 286.49652012 286.52620798 286.55589376 286.58557745 286.61525905 286.64493857 286.67461599 286.70429132 286.73396455 286.76363568 286.79330471 286.82297163 286.85263645 286.88229915 286.91195974 286.94161822 286.97127457 287.00092881 287.03058092 287.06023090 287.08987876
286.20421254 286.23392742 286.26364025 286.29335101 286.32305972 286.35276635 286.38247093 286.41217343 286.44187386 286.47157221 286.50126848 286.53096268 286.56065479 286.59034482 286.62003275 286.64971860 286.67940235 286.70908401 286.73876357 286.76844102 286.79811637 286.82778962 286.85746075 286.88712978 286.91679669 286.94646148 286.97612415 287.00578470 287.03544312 287.06509942 287.09475358
286.20889952 286.23862076 286.26833993 286.29805705 286.32777210 286.35748509 286.38719600 286.41690485 286.44661162 286.47631631 286.50601893 286.53571946 286.56541791 286.59511427 286.62480855 286.65450072 286.68419081 286.71387880 286.74356468 286.77324846 286.80293014 286.83260971 286.86228717 286.89196252 286.92163575 286.95130686 286.98097585 287.01064271 287.04030745 287.06997006 287.09963054
286.21358857 286.24331615 286.27304168 286.30276515 286.33248655 286.36220589 286.39192315 286.42163834 286.45135146 286.48106250 286.51077146 286.54047833 286.57018312 286.59988582 286.62958643 286.65928494 286.68898136 286.71867568 286.74836790 286.77805801 286.80774602 286.83743192 286.86711570 286.89679737 286.92647693 286.95615436 286.98582967 287.01550285 287.04517391 287.07484284 287.10450963
286.21827966 286.24801361 286.27774549 286.30747532 286.33720307 286.36692876 286.39665237 286.42637391 286.45609338 286.48581076 286.51552607 286.54523929 286.57495042 286.60465946 286.63436641 286.66407126 286.69377402 286.72347467 286.75317322 286.78286967 286.81256401 286.84225623 286.87194635 286.90163435 286.93132022 286.96100398 286.99068562 287.02036512 287.05004250 287.07971774 287.10939086
286.22297282 286.25271313 286.28245137 286.31218755 286.34192166 286.37165370 286.40138367 286.43111156 286.46083738 286.49056111 286.52028276 286.55000233 286.57971980 286.60943519 286.63914848 286.66885967 286.69856877 286.72827576 286.75798065 286.78768343 286.81738411 286.84708267 286.87677911 286.90647344 286.93616565 286.96585573 286.99554369 287.02522952 287.05491322 287.08459479 287.11427422
286.22766804 286.25741470 286.28715931 286.31690185 286.34664232 286.37638072 286.40611704 286.43585129 286.46558346 286.49531354 286.52504154 286.55476746 286.58449128 286.61421301 286.64393265 286.67365019 286.70336562 286.73307896 286.76279019 286.79249931 286.82220632 286.85191121 286.88161399 286.91131465 286.94101319 286.97070960 287.00040389 287.03009605 287.05978608 287.08947397 287.11915972
286.23236531 286.26211835 286.29186932 286.32161822 286.35136505 286.38110981 286.41085249 286.44059309 286.47033162 286.50006806 286.52980241 286.55953468 286.58926485 286.61899293 286.64871892 286.67844280 286.70816458 286.73788426 286.76760183 286.79731729 286.82703064 286.85674187 286.88645099 286.91615798 286.94586286 286.97556560 287.00526622 287.03496471 287.06466106 287.09435528 287.12404736
286.23706465 286.26682405 286.29658139 286.32633666 286.35608985 286.38584097 286.41559002 286.44533698 286.47508186 286.50482466 286.53456537 286.56430399 286.59404052 286.62377495 286.65350728 286.68323752 286.71296565 286.74269167 286.77241558 286.80213739 286.83185708 286.86157465 286.89129011 286.92100344 286.95071465 286.98042373 287.01013068 287.03983550 287.06953819 287.09923874 287.12893715
286.24176605 286.27153183 286.30129553 286.33105717 286.36081673 286.39057421 286.42032962 286.45008295 286.47983419 286.50958335 286.53933042 286.56907539 286.59881828 286.62855906 286.65829775 286.68803433 286.71776881 286.74750119 286.77723145 286.80695960 286.83668563 286.86640955 286.89613135 286.92585102 286.95556857 286.98528399 287.01499728 287.04470843 287.07441745 287.10412433 287.13382907
286.24646952 286.27624167 286.30601174 286.33577975 286.36554568 286.39530953 286.42507131 286.45483100 286.48458861 286.51434413 286.54409756 286.57384889 286.60359813 286.63334528 286.66309032 286.69283326 286.72257409 286.75231281 286.78204943 286.81178393 286.84151631 286.87124657 286.90097471 286.93070073 286.96042462 286.99014638 287.01986601 287.04958350 287.07929885 287.10901207 287.13872314
286.25117506 286.28095358 286.31073003 286.34050441 286.37027671 286.40004693 286.42981508 286.45958114 286.48934511 286.51910699 286.54886679 286.57862449 286.60838009 286.63813359 286.66788499 286.69763429 286.72738147 286.75712655 286.78686952 286.81661037 286.84634910 286.87608571 286.90582020 286.93555256 286.96528280 286.99501090 287.02473687 287.05446070 287.08418240 287.11390195 287.14361936
286.25588266 286.28566756 286.31545039 286.34523114 286.37500982 286.40478641 286.43456093 286.46433336 286.49410370 286.52387195 286.55363811 286.58340218 286.61316414 286.64292401 286.67268177 286.70243742 286.73219097 286.76194240 286.79169173 286.82143893 286.85118401 286.88092698 286.91066782 286.94040653 286.97014311 286.99987756 287.02960987 287.05934004 287.08906808 287.11879397 287.14851772
286.26059233 286.29038361 286.32017282 286.34995995 286.37974500 286.40952798 286.43930887 286.46908767 286.49886438 286.52863901 286.55841153 286.58818197 286.61795030 286.64771653 286.67748065 286.70724267 286.73700258 286.76676037 286.79651605 286.82626961 286.85602105 286.88577037 286.91551756 286.94526262 286.97500555 287.00474635 287.03448501 287.06422153 287.09395591 287.12368814 287.15341823
286.26530407 286.29510173 286.32489732 286.35469084 286.38448227 286.41427162 286.44405889 286.47384407 286.50362716 286.53340815 286.56318705 286.59296385 286.62273855 286.65251115 286.68228164 286.71205002 286.74181629 286.77158045 286.80134249 286.83110241 286.86086021 286.89061588 286.92036943 286.95012084 286.97987013 287.00961727 287.03936228 287.06910515 287.09884588 287.12858446 287.15832089
286.27001788 286.29982193 286.32962391 286.35942381 286.38922162 286.41901735 286.44881100 286.47860256 286.50839202 286.53817939 286.56796467 286.59774784 286.62752892 286.65730788 286.68708474 286.71685949 286.74663213 286.77640265 286.80617105 286.83593733 286.86570149 286.89546352 286.92522343 286.95498120 286.98473684 287.01449034 287.04424170 287.07399092 287.10373799 287.13348292 287.16322570
286.27473377 286.30454421 286.33435257 286.36415886 286.39396306 286.42376517 286.45356520 286.48336314 286.51315898 286.54295273 286.57274438 286.60253393 286.63232138 286.66210672 286.69188995 286.72167107 286.75145008 286.78122696 286.81100173 286.84077438 286.87054490 286.90031329 286.93007956 286.95984369 286.98960568 287.01936554 287.04912326 287.07887883 287.10863226 287.13838354 287.16813266
286.27945173 286.30926856 286.33908331 286.36889599 286.39870658 286.42851508 286.45832149 286.48812581 286.51792804 286.54772817 286.57752620 286.60732213 286.63711595 286.66690767 286.69669727 286.72648477 286.75627014 286.78605340 286.81583454 286.84561355 286.87539044 286.90516520 286.93493782 286.96470831 286.99447667 287.02424289 287.05400696 287.08376889 287.11352867 287.14328630 287.17304178
286.28417176 286.31399499 286.34381614 286.37363520 286.40345218 286.43326707 286.46307987 286.49289058 286.52269920 286.55250571 286.58231012 286.61211243 286.64191263 286.67171073 286.70150671 286.73130058 286.76109233 286.79088196 286.82066946 286.85045485 286.88023810 286.91001923 286.93979822 286.96957508 286.99934980 287.02912237 287.05889281 287.08866110 287.11842723 287.14819122 287.17795306
286.28889388 286.31872350 286.34855104 286.37837650 286.40819988 286.43802116 286.46784035 286.49765745 286.52747245 286.55728535 286.58709615 286.61690484 286.64671142 286.67651590 286.70631826 286.73611850 286.76591663 286.79571264 286.82550652 286.85529827 286.88508790 286.91487539 286.94466075 286.97444398 287.00422506 287.03400400 287.06378080 287.09355545 287.12332795 287.15309829 287.18286649
286.29361807 286.32345409 286.35328803 286.38311989 286.41294966 286.44277734 286.47260292 286.50242641 286.53224780 286.56206709 286.59188427 286.62169935 286.65151232 286.68132318 286.71113192 286.74093855 286.77074305 286.80054544 286.83034570 286.86014383 286.88993983 286.91973369 286.94952543 286.97931502 287.00910247 287.03888778 287.06867094 287.09845195 287.12823082 287.15800752 287.18778207
286.29834434 286.32818677 286.35802711 286.38786536 286.41770153 286.44753561 286.47736759 286.50719747 286.53702525 286.56685093 286.59667451 286.62649598 286.65631533 286.68613258 286.71594770 286.74576071 286.77557160 286.80538037 286.83518700 286.86499151 286.89479389 286.92459413 286.95439223 286.98418820 287.01398202 287.04377370 287.07356323 287.10335061 287.13313584 287.16291891 287.19269982
286.30307269 286.33292152 286.36276827 286.39261293 286.42245550 286.45229597 286.48213435 286.51197063 286.54180481 286.57163688 286.60146685 286.63129471 286.66112046 286.69094409 286.72076560 286.75058500 286.78040227 286.81021742 286.84003044 286.86984133 286.89965008 286.92945670 286.95926118 286.98906352 287.01886372 287.04866177 287.07845767 287.10825142 287.13804301 287.16783245 287.19761973
286.30780313 286.33765837 286.36751152 286.39736258 286.42721156 286.45705843 286.48690321 286.51674589 286.54658647 286.57642494 286.60626130 286.63609556 286.66592770 286.69575772 286.72558563 286.75541141 286.78523507 286.81505660 286.84487601 286.87469328 286.90450841 286.93432141 286.96413227 286.99394099 287.02374756 287.05355199 287.08335426 287.11315438 287.14295235 287.17274815 287.20254180
286.31253565 286.34239730 286.37225686 286.40211433 286.43196971 286.46182299 286.49167417 286.52152326 286.55137023 286.58121511 286.61105787 286.64089852 286.67073705 286.70057347 286.73040777 286.76023994 286.79006999 286.81989791 286.84972370 286.87954736 286.90936888 286.93918827 286.96900551 286.99882060 287.02863356 287.05844436 287.08825301 287.11805950 287.14786384 287.17766602 287.20746603
286.31727025 286.34713831 286.37700429 286.40686817 286.43672996 286.46658965 286.49644724 286.52630272 286.55615611 286.58600738 286.61585654 286.64570359 286.67554852 286.70539134 286.73523203 286.76507060 286.79490704 286.82474136 286.85457354 286.88440358 286.91423149 286.94405726 286.97388088 287.00370236 287.03352170 287.06333888 287.09315391 287.12296678 287.15277749 287.18258604 287.21239243
286.32200694 286.35188142 286.38175381 286.41162411 286.44149230 286.47135840 286.50122240 286.53108430 286.56094409 286.59080176 286.62065733 286.65051078 286.68036212 286.71021133 286.74005842 286.76990339 286.79974622 286.82958693 286.85942550 286.88926194 286.91909624 286.94892839 286.97875841 287.00858627 287.03841199 287.06823555 287.09805696 287.12787621 287.15769331 287.18750823 287.21732100
286.32674572 286.35662662 286.38650543 286.41638214 286.44625675 286.47612926 286.50599967 286.53586798 286.56573418 286.59559826 286.62546023 286.65532009 286.68517783 286.71503344 286.74488693 286.77473830 286.80458753 286.83443464 286.86427961 286.89412244 286.92396313 286.95380167 286.98363808 287.01347233 287.04330443 287.07313438 287.10296217 287.13278781 287.16261128 287.19243259 287.22225173
286.33148659 286.36137391 286.39125914 286.42114226 286.45102330 286.48090222 286.51077905 286.54065377 286.57052638 286.60039687 286.63026525 286.66013152 286.68999566 286.71985768 286.74971758 286.77957534 286.80943098 286.83928448 286.86913585 286.89898507 286.92883216 286.95867710 286.98851989 287.01836054 287.04819903 287.07803537 287.10786955 287.13770157 287.16753142 287.19735911 287.22718464
286.33622955 286.36612329 286.39601494 286.42590449 286.45579194 286.48567729 286.51556053 286.54544167 286.57532069 286.60519760 286.63507239 286.66494506 286.69481562 286.72468404 286.75455035 286.78441452 286.81427656 286.84413646 286.87399422 286.90384985 286.93370333 286.96355467 286.99340386 287.02325090 287.05309578 287.08293851 287.11277908 287.14261748 287.17245373 287.20228780 287.23211971
286.34097460 286.37087477 286.40077284 286.43066882 286.46056269 286.49045446 286.52034412 286.55023167 286.58011711 286.61000044 286.63988165 286.66976073 286.69963770 286.72951253 286.75938524 286.78925582 286.81912427 286.84899058 286.87885474 286.90871677 286.93857666 286.96843439 286.99828998 287.02814341 287.05799469 287.08784381 287.11769077 287.14753557 287.17737820 287.20721866 287.23705696
286.34572175 286.37562835 286.40553285 286.43543525 286.46533555 286.49523374 286.52512982 286.55502380 286.58491566 286.61480540 286.64469302 286.67457853 286.70446190 286.73434315 286.76422227 286.79409926 286.82397412 286.85384683 286.88371741 286.91358584 286.94345212 286.97331626 287.00317825 287.03303808 287.06289576 287.09275127 287.12260463 287.15245582 287.18230484 287.21215170 287.24199638
286.35047099 286.38038402 286.41029495 286.44020378 286.47011051 286.50001513 286.52991763 286.55981803 286.58971631 286.61961248 286.64950652 286.67939844 286.70928824 286.73917590 286.76906144 286.79894484 286.82882610 286.85870523 286.88858221 286.91845705 286.94832974 286.97820028 287.00806867 287.03793491 287.06779898 287.09766090 287.12752065 287.15737823 287.18723365 287.21708690 287.24693797
286.35522232 286.38514179 286.41505915 286.44497442 286.47488757 286.50479862 286.53470756 286.56461438 286.59451909 286.62442168 286.65432214 286.68422048 286.71411670 286.74401078 286.77390273 286.80379255 286.83368023 286.86356577 286.89344916 286.92333041 286.95320951 286.98308646 287.01296125 287.04283389 287.07270437 287.10257268 287.13243884 287.16230282 287.19216463 287.22202428 287.25188174
286.35997576 286.38990166 286.41982546 286.44974716 286.47966675 286.50958423 286.53949960 286.56941285 286.59932398 286.62923300 286.65913989 286.68904465 286.71894729 286.74884779 286.77874616 286.80864240 286.83853649 286.86842845 286.89831825 286.92820592 286.95809143 286.98797478 287.01785599 287.04773503 287.07761191 287.10748664 287.13735919 287.16722958 287.19709779 287.22696383 287.25682769
286.36473129 286.39466363 286.42459387 286.45452201 286.48444803 286.51437195 286.54429375 286.57421343 286.60413100 286.63404644 286.66395976 286.69387095 286.72378001 286.75368694 286.78359173 286.81349439 286.84339490 286.87329327 286.90318950 286.93308357 286.96297550 286.99286527 287.02275288 287.05263833 287.08252163 287.11240275 287.14228171 287.17215850 287.20203312 287.23190556 287.26177582
286.36948892 286.39942771 286.42936439 286.45929897 286.48923143 286.51916178 286.54909002 286.57901614 286.60894014 286.63886201 286.66878176 286.69869938 286.72861487 286.75852822 286.78843944 286.81834852 286.84825545 286.87816024 286.90806289 286.93796338 286.96786172 286.99775791 287.02765193 287.05754380 287.08743350 287.11732104 287.14720641 287.17708960 287.20697062 287.23684947 287.26672613
286.37424866 286.40419389 286.43413702 286.46407803 286.49401694 286.52395373 286.55388841 286.58382096 286.61375140 286.64367971 286.67360589 286.70352994 286.73345186 286.76337164 286.79328929 286.82320479 286.85311815 286.88302936 286.91293843 286.94284534 286.97275010 287.00265271 287.03255315 287.06245143 287.09234754 287.12224149 287.15213327 287.18202287 287.21191030 287.24179555 287.27167862
286.37901050 286.40896218 286.43891175 286.46885921 286.49880456 286.52874780 286.55868891 286.58862791 286.61856478 286.64849953 286.67843215 286.70836263 286.73829098 286.76821720 286.79814127 286.82806320 286.85798299 286.88790063 286.91781612 286.94772946 286.97764064 287.00754966 287.03745653 287.06736122 287.09726375 287.12716412 287.15706231 287.18695832 287.21685216 287.24674382 287.27663330
286.38377444 286.41373257 286.44368859 286.47364250 286.50359430 286.53354398 286.56349154 286.59343698 286.62338029 286.65332148 286.68326053 286.71319746 286.74313224 286.77306489 286.80299540 286.83292377 286.86284998 286.89277405 286.92269597 286.95261573 286.98253334 287.01244878 287.04236207 287.07227318 287.10218213 287.13208891 287.16199352 287.19189595 287.22179620 287.25169427 287.28159016
286.38854049 286.41850507 286.44846755 286.47842791 286.50838616 286.53834228 286.56829629 286.59824817 286.62819793 286.65814556 286.68809106 286.71803442 286.74797565 286.77791473 286.80785167 286.83778647 286.86771912 286.89764962 286.92757797 286.95750416 286.98742819 287.01735006 287.04726977 287.07718731 287.10710268 287.13701588 287.16692691 287.19683576 287.22674242 287.25664691 287.28654921
286.39330865 286.42327969 286.45324862 286.48321543 286.51318013 286.54314271 286.57310316 286.60306150 286.63301770 286.66297177 286.69292371 286.72287352 286.75282119 286.78276671 286.81271009 286.84265133 286.87259041 286.90252735 286.93246213 286.96239475 286.99232521 287.02225351 287.05217964 287.08210361 287.11202540 287.14194503 287.17186247 287.20177774 287.23169083 287.26160173 287.29151044
286.39807891 286.42805641 286.45803180 286.48800507 286.51797622 286.54794525 286.57791216 286.60787695 286.63783960 286.66780012 286.69775851 286.72771476 286.75766887 286.78762083 286.81757066 286.84751833 286.87746385 286.90740722 286.93734844 286.96728749 286.99722439 287.02715912 287.05709168 287.08702208 287.11695030 287.14687635 287.17680022 287.20672191 287.23664141 287.26655873 287.29647387
286.40285129 286.43283525 286.46281710 286.49279683 286.52277444 286.55274992 286.58272329 286.61269452 286.64266363 286.67263060 286.70259544 286.73255813 286.76251869 286.79247710 286.82243337 286.85238748 286.88233945 286.91228926 286.94223691 286.97218240 287.00212573 287.03206690 287.06200589 287.09194272 287.12187737 287.15180984 287.18174014 287.21166826 287.24159419 287.27151793 287.30143948
286.40762577 286.43761620 286.46760451 286.49759070 286.52757477 286.55755672 286.58753654 286.61751423 286.64748979 286.67746322 286.70743450 286.73740365 286.76737066 286.79733552 286.82729823 286.85725879 286.88721720 286.91717345 286.94712754 286.97707947 287.00702924 287.03697684 287.06692227 287.09686553 287.12680661 287.15674552 287.18668225 287.21661679 287.24654915 287.27647931 287.30640729
286.41240237 286.44239927 286.47239404 286.50238670 286.53237723 286.56236564 286.59235192 286.62233607 286.65231809 286.68229797 286.71227571 286.74225131 286.77222477 286.80219608 286.83216524 286.86213225 286.89209710 286.92205980 286.95202034 286.98197871 287.01193492 287.04188896 287.07184083 287.10179052 287.13173804 287.16168338 287.19162653 287.22156751 287.25150629 287.28144289 287.31137729
286.41718109 286.44718445 286.47718569 286.50718482 286.53718182 286.56717669 286.59716943 286.62716005 286.65714852 286.68713486 286.71711906 286.74710112 286.77708103 286.80705879 286.83703441 286.86700787 286.89697917 286.92694831 286.95691529 286.98688011 287.01684276 287.04680324 287.07676155 287.10671769 287.13667164 287.16662342 287.19657301 287.22652041 287.25646563 287.28640866 287.31634949
286.42196192 286.45197175 286.48197947 286.51198506 286.54198853 286.57198987 286.60198908 286.63198615 286.66198109 286.69197389 286.72196455 286.75195307 286.78193944 286.81192366 286.84190572 286.87188564 286.90186339 286.93183898 286.96181242 286.99178368 287.02175278 287.05171970 287.08168445 287.11164703 287.14160742 287.17156564 287.20152167 287.23147551 287.26142716 287.29137662 287.32132388
$ Latitudes for GLW CURV grid
10 1. 0.  1  1 '(....)'  'NAME'  'lat_lc_2p5.dat'
43.60000000 43.59666874 43.59333277 43.58999211 43.58664675 43.58329669 43.57994192 43.57658246 43.57321830 43.56984944 43.56647588 43.56309762 43.55971466 43.55632701 43.55293466 43.54953760 43.54613586 43.54272941 43.53931827 43.53590242 43.53248189 43.52905665 43.52562672 43.52219209 43.51875277 43.51530875 43.51186003 43.50840662 43.50494851 43.50148571 43.49801821
43.62131736 43.61798584 43.61464961 43.61130868 43.60796305 43.60461271 43.60125768 43.59789795 43.59453352 43.59116439 43.58779056 43.58441203 43.58102881 43.57764088 43.57424825 43.57085093 43.56744891 43.56404219 43.56063077 43.55721466 43.55379385 43.55036834 43.54693813 43.54350323 43.54006363 43.53661933 43.53317034 43.52971665 43.52625826 43.52279518 43.51932741
43.64263169 43.63929989 43.63596340 43.63262220 43.62927630 43.62592571 43.62257041 43.61921041 43.61584571 43.61247631 43.60910221 43.60572341 43.60233991 43.59895171 43.59555882 43.59216122 43.58875893 43.58535194 43.58194025 43.57852386 43.57510277 43.57167699 43.56824651 43.56481133 43.56137145 43.55792688 43.55447761 43.55102364 43.54756498 43.54410162 43.54063357
43.66394297 43.66061091 43.65727415 43.65393268 43.65058652 43.64723565 43.64388009 43.64051982 43.63715485 43.63378518 43.63041082 43.62703175 43.62364798 43.62025951 43.61686634 43.61346848 43.61006591 43.60665865 43.60324668 43.59983002 43.59640866 43.59298260 43.58955185 43.58611639 43.58267624 43.57923139 43.57578185 43.57232761 43.56886867 43.56540503 43.56193670
43.68525120 43.68191888 43.67858185 43.67524012 43.67189369 43.66854256 43.66518672 43.66182619 43.65846095 43.65509102 43.65171638 43.64833704 43.64495300 43.64156426 43.63817083 43.63477269 43.63136985 43.62796232 43.62455008 43.62113315 43.61771151 43.61428518 43.61085415 43.60741842 43.60397800 43.60053287 43.59708305 43.59362853 43.59016931 43.58670540 43.58323679
43.70655638 43.70322379 43.69988650 43.69654451 43.69319781 43.68984641 43.68649031 43.68312951 43.67976401 43.67639380 43.67301890 43.66963929 43.66625498 43.66286597 43.65947226 43.65607386 43.65267075 43.64926294 43.64585043 43.64243323 43.63901132 43.63558471 43.63215341 43.62871741 43.62527671 43.62183131 43.61838121 43.61492642 43.61146692 43.60800273 43.60453385
43.72785851 43.72452566 43.72118810 43.71784584 43.71449888 43.71114722 43.70779085 43.70442978 43.70106401 43.69769354 43.69431836 43.69093849 43.68755391 43.68416463 43.68077065 43.67737198 43.67396860 43.67056052 43.66714774 43.66373026 43.66030808 43.65688120 43.65344963 43.65001335 43.64657238 43.64312670 43.63967633 43.63622126 43.63276149 43.62929703 43.62582786
43.74915758 43.74582447 43.74248665 43.73914412 43.73579689 43.73244496 43.72908833 43.72572700 43.72236096 43.71899022 43.71561478 43.71223463 43.70884979 43.70546024 43.70206599 43.69866704 43.69526340 43.69185505 43.68844200 43.68502425 43.68160179 43.67817464 43.67474279 43.67130624 43.66786500 43.66441905 43.66096840 43.65751306 43.65405301 43.65058827 43.64711883
43.77045360 43.76712022 43.76378213 43.76043934 43.75709185 43.75373965 43.75038276 43.74702115 43.74365485 43.74028384 43.73690813 43.73352772 43.73014261 43.72675279 43.72335828 43.71995906 43.71655514 43.71314652 43.70973320 43.70631518 43.70289246 43.69946503 43.69603291 43.69259609 43.68915457 43.68570834 43.68225742 43.67880180 43.67534148 43.67187647 43.66840675
43.79174655 43.78841290 43.78507455 43.78173150 43.77838374 43.77503128 43.77167412 43.76831225 43.76494568 43.76157441 43.75819843 43.75481775 43.75143237 43.74804229 43.74464750 43.74124802 43.73784383 43.73443494 43.73102135 43.72760305 43.72418006 43.72075237 43.71731997 43.71388288 43.71044108 43.70699459 43.70354339 43.70008750 43.69662690 43.69316161 43.68969162
43.81303643 43.80970252 43.80636391 43.80302059 43.79967257 43.79631985 43.79296242 43.78960029 43.78623345 43.78286191 43.77948567 43.77610472 43.77271907 43.76932872 43.76593367 43.76253391 43.75912946 43.75572030 43.75230643 43.74888787 43.74546461 43.74203664 43.73860398 43.73516661 43.73172454 43.72827777 43.72482630 43.72137014 43.71790927 43.71444370 43.71097343
43.83432324 43.83098907 43.82765020 43.82430662 43.82095833 43.81760534 43.81424765 43.81088525 43.80751815 43.80414635 43.80076984 43.79738863 43.79400271 43.79061209 43.78721677 43.78381675 43.78041202 43.77700259 43.77358846 43.77016963 43.76674609 43.76331786 43.75988492 43.75644728 43.75300494 43.74955790 43.74610616 43.74264972 43.73918857 43.73572273 43.73225219
43.85560698 43.85227255 43.84893341 43.84558957 43.84224102 43.83888777 43.83552981 43.83216715 43.82879978 43.82542771 43.82205094 43.81866946 43.81528328 43.81189239 43.80849680 43.80509651 43.80169152 43.79828182 43.79486742 43.79144832 43.78802451 43.78459600 43.78116280 43.77772489 43.77428227 43.77083496 43.76738295 43.76392623 43.76046482 43.75699870 43.75352789
43.87688765 43.87355295 43.87021355 43.86686945 43.86352064 43.86016712 43.85680890 43.85344597 43.85007834 43.84670601 43.84332897 43.83994722 43.83656078 43.83316962 43.82977377 43.82637321 43.82296794 43.81955798 43.81614331 43.81272394 43.80929986 43.80587109 43.80243761 43.79899943 43.79555654 43.79210896 43.78865667 43.78519969 43.78173800 43.77827161 43.77480052
43.89816523 43.89483028 43.89149061 43.88814625 43.88479718 43.88144340 43.87808491 43.87472172 43.87135383 43.86798123 43.86460392 43.86122191 43.85783520 43.85444378 43.85104766 43.84764683 43.84424130 43.84083107 43.83741613 43.83399649 43.83057214 43.82714310 43.82370935 43.82027090 43.81682774 43.81337989 43.80992733 43.80647007 43.80300811 43.79954144 43.79607008
43.91943973 43.91610452 43.91276460 43.90941997 43.90607063 43.90271659 43.89935784 43.89599439 43.89262623 43.88925337 43.88587580 43.88249352 43.87910654 43.87571486 43.87231847 43.86891738 43.86551158 43.86210108 43.85868587 43.85526596 43.85184135 43.84841203 43.84497801 43.84153929 43.83809587 43.83464774 43.83119491 43.82773738 43.82427515 43.82080821 43.81733657
43.94071115 43.93737567 43.93403549 43.93069060 43.92734100 43.92398670 43.92062769 43.91726397 43.91389555 43.91052242 43.90714459 43.90376205 43.90037481 43.89698286 43.89358620 43.89018484 43.88677878 43.88336801 43.87995253 43.87653236 43.87310748 43.86967789 43.86624360 43.86280461 43.85936092 43.85591252 43.85245942 43.84900162 43.84553911 43.84207190 43.83859999
43.96197948 43.95864374 43.95530330 43.95195815 43.94860829 43.94525372 43.94189445 43.93853047 43.93516179 43.93178840 43.92841030 43.92502750 43.92163999 43.91824777 43.91485085 43.91144922 43.90804289 43.90463186 43.90121612 43.89779567 43.89437052 43.89094067 43.88750611 43.88406685 43.88062289 43.87717422 43.87372085 43.87026277 43.86680000 43.86333252 43.85986034
43.98324471 43.97990872 43.97656801 43.97322260 43.96987248 43.96651766 43.96315812 43.95979388 43.95642494 43.95305128 43.94967292 43.94628985 43.94290208 43.93950960 43.93611241 43.93271052 43.92930392 43.92589262 43.92247661 43.91905590 43.91563049 43.91220036 43.90876554 43.90532601 43.90188177 43.89843284 43.89497920 43.89152085 43.88805780 43.88459005 43.88111760
44.00450685 44.00117060 43.99782964 43.99448397 43.99113359 43.98777850 43.98441870 43.98105420 43.97768499 43.97431107 43.97093245 43.96754912 43.96416108 43.96076834 43.95737089 43.95396873 43.95056187 43.94715030 43.94373402 43.94031305 43.93688736 43.93345697 43.93002188 43.92658208 43.92313758 43.91968837 43.91623446 43.91277584 43.90931252 43.90584450 43.90237178
44.02576590 44.02242938 44.01908816 44.01574223 44.01239159 44.00903624 44.00567619 44.00231142 43.99894195 43.99556777 43.99218888 43.98880529 43.98541699 43.98202398 43.97862626 43.97522384 43.97181672 43.96840488 43.96498834 43.96156710 43.95814115 43.95471049 43.95127513 43.94783506 43.94439029 43.94094081 43.93748663 43.93402775 43.93056416 43.92709587 43.92362287
44.04702184 44.04368507 44.04034358 44.03699739 44.03364649 44.03029089 44.02693057 44.02356554 44.02019581 44.01682137 44.01344222 44.01005836 44.00666980 44.00327653 43.99987855 43.99647586 43.99306847 43.98965637 43.98623957 43.98281805 43.97939184 43.97596091 43.97252528 43.96908495 43.96563991 43.96219016 43.95873572 43.95527656 43.95181270 43.94834414 43.94487087
44.06827467 44.06493764 44.06159590 44.05824946 44.05489830 44.05154243 44.04818185 44.04481657 44.04144657 44.03807187 44.03469246 44.03130834 44.02791951 44.02452598 44.02112773 44.01772478 44.01431713 44.01090476 44.00748769 44.00406591 44.00063943 43.99720824 43.99377234 43.99033174 43.98688643 43.98343642 43.97998170 43.97652228 43.97305815 43.96958932 43.96611578
44.08952440 44.08618712 44.08284512 44.07949841 44.07614699 44.07279086 44.06943003 44.06606448 44.06269423 44.05931926 44.05593959 44.05255521 44.04916612 44.04577232 44.04237381 44.03897060 44.03556268 44.03215005 44.02873272 44.02531067 44.02188392 44.01845247 44.01501631 44.01157544 44.00812986 44.00467958 44.00122459 43.99776490 43.99430050 43.99083140 43.98735759
44.11077102 44.10743348 44.10409122 44.10074425 44.09739258 44.09403619 44.09067509 44.08730929 44.08393877 44.08056355 44.07718361 44.07379897 44.07040962 44.06701556 44.06361679 44.06021331 44.05680513 44.05339224 44.04997464 44.04655233 44.04312531 44.03969359 44.03625716 44.03281603 44.02937019 44.02591964 44.02246438 44.01900442 44.01553976 44.01207039 44.00859631
44.13201452 44.12867672 44.12533421 44.12198698 44.11863505 44.11527840 44.11191705 44.10855098 44.10518021 44.10180472 44.09842453 44.09503962 44.09165001 44.08825569 44.08485666 44.08145292 44.07804447 44.07463132 44.07121345 44.06779088 44.06436360 44.06093161 44.05749492 44.05405352 44.05060741 44.04715659 44.04370107 44.04024084 44.03677591 44.03330627 44.02983192
44.15325491 44.14991685 44.14657408 44.14322660 44.13987441 44.13651750 44.13315589 44.12978956 44.12641853 44.12304278 44.11966233 44.11627717 44.11288729 44.10949271 44.10609341 44.10268941 44.09928070 44.09586728 44.09244915 44.08902632 44.08559877 44.08216652 44.07872956 44.07528789 44.07184152 44.06839044 44.06493465 44.06147415 44.05800895 44.05453904 44.05106443
44.17449217 44.17115386 44.16781083 44.16446309 44.16111064 44.15775348 44.15439161 44.15102503 44.14765373 44.14427773 44.14089701 44.13751159 44.13412145 44.13072661 44.12732705 44.12392279 44.12051382 44.11710013 44.11368174 44.11025864 44.10683084 44.10339832 44.09996109 44.09651916 44.09307252 44.08962117 44.08616512 44.08270435 44.07923888 44.07576871 44.07229382
44.19572632 44.19238775 44.18904446 44.18569647 44.18234376 44.17898634 44.17562421 44.17225737 44.16888582 44.16550955 44.16212858 44.15874289 44.15535250 44.15195739 44.14855758 44.14515305 44.14174382 44.13832987 44.13491122 44.13148785 44.12805978 44.12462700 44.12118951 44.11774731 44.11430041 44.11084879 44.10739247 44.10393144 44.10046570 44.09699526 44.09352011
44.21695733 44.21361850 44.21027497 44.20692671 44.20357375 44.20021607 44.19685369 44.19348659 44.19011478 44.18673825 44.18335702 44.17997108 44.17658042 44.17318505 44.16978498 44.16638019 44.16297069 44.15955649 44.15613757 44.15271394 44.14928561 44.14585256 44.14241481 44.13897235 44.13552517 44.13207330 44.12861671 44.12515541 44.12168941 44.11821870 44.11474328
44.23818522 44.23484613 44.23150234 44.22815383 44.22480061 44.22144268 44.21808003 44.21471268 44.21134061 44.20796383 44.20458234 44.20119613 44.19780522 44.19440959 44.19100925 44.18760420 44.18419445 44.18077998 44.17736080 44.17393691 44.17050831 44.16707500 44.16363699 44.16019426 44.15674682 44.15329468 44.14983782 44.14637626 44.14290999 44.13943901 44.13596333
44.25940997 44.25607063 44.25272658 44.24937782 44.24602434 44.24266615 44.23930325 44.23593564 44.23256331 44.22918627 44.22580452 44.22241806 44.21902688 44.21563100 44.21223040 44.20882509 44.20541507 44.20200034 44.19858090 44.19515675 44.19172789 44.18829432 44.18485604 44.18141305 44.17796535 44.17451294 44.17105582 44.16759399 44.16412746 44.16065621 44.15718026
44.28063158 44.27729199 44.27394769 44.27059867 44.26724494 44.26388649 44.26052333 44.25715546 44.25378288 44.25040558 44.24702357 44.24363685 44.24024542 44.23684927 44.23344842 44.23004285 44.22663257 44.22321758 44.21979788 44.21637346 44.21294434 44.20951051 44.20607196 44.20262871 44.19918074 44.19572807 44.19227069 44.18880859 44.18534179 44.18187028 44.17839406
44.30185006 44.29851021 44.29516565 44.29181638 44.28846239 44.28510369 44.28174028 44.27837215 44.27499931 44.27162176 44.26823949 44.26485251 44.26146082 44.25806442 44.25466330 44.25125747 44.24784693 44.24443168 44.24101172 44.23758704 44.23415766 44.23072356 44.22728476 44.22384124 44.22039301 44.21694007 44.21348243 44.21002007 44.20655300 44.20308123 44.19960474
44.32306539 44.31972529 44.31638048 44.31303095 44.30967671 44.30631775 44.30295408 44.29958570 44.29621260 44.29283479 44.28945227 44.28606503 44.28267308 44.27927642 44.27587505 44.27246896 44.26905816 44.26564265 44.26222242 44.25879749 44.25536784 44.25193348 44.24849441 44.24505064 44.24160214 44.23814894 44.23469103 44.23122841 44.22776108 44.22428904 44.22081229
44.34427757 44.34093722 44.33759216 44.33424238 44.33088788 44.32752867 44.32416475 44.32079611 44.31742275 44.31404469 44.31066191 44.30727441 44.30388220 44.30048528 44.29708365 44.29367730 44.29026624 44.28685047 44.28342999 44.28000479 44.27657489 44.27314027 44.26970094 44.26625689 44.26280814 44.25935468 44.25589650 44.25243362 44.24896602 44.24549372 44.24201670
44.36548661 44.36214601 44.35880069 44.35545065 44.35209590 44.34873644 44.34537226 44.34200337 44.33862976 44.33525143 44.33186840 44.32848065 44.32508818 44.32169100 44.31828911 44.31488251 44.31147119 44.30805516 44.30463441 44.30120896 44.29777879 44.29434391 44.29090432 44.28746001 44.28401100 44.28055727 44.27709883 44.27363568 44.27016783 44.26669525 44.26321797
44.38669250 44.38335164 44.38000607 44.37665578 44.37330078 44.36994106 44.36657662 44.36320748 44.35983361 44.35645503 44.35307174 44.34968373 44.34629101 44.34289358 44.33949143 44.33608456 44.33267299 44.32925670 44.32583569 44.32240998 44.31897955 44.31554441 44.31210456 44.30865999 44.30521071 44.30175672 44.29829802 44.29483461 44.29136649 44.28789365 44.28441611
44.40789523 44.40455412 44.40120829 44.39785775 44.39450250 44.39114252 44.38777784 44.38440843 44.38103431 44.37765548 44.37427193 44.37088367 44.36749069 44.36409300 44.36069059 44.35728347 44.35387163 44.35045509 44.34703382 44.34360785 44.34017716 44.33674176 44.33330165 44.32985682 44.32640728 44.32295303 44.31949407 44.31603039 44.31256201 44.30908891 44.30561110
44.42909480 44.42575344 44.42240736 44.41905657 44.41570106 44.41234083 44.40897589 44.40560623 44.40223186 44.39885277 44.39546897 44.39208045 44.38868721 44.38528926 44.38188660 44.37847922 44.37506713 44.37165032 44.36822880 44.36480257 44.36137162 44.35793596 44.35449559 44.35105050 44.34760070 44.34414619 44.34068696 44.33722303 44.33375438 44.33028102 44.32680294
44.45029121 44.44694959 44.44360327 44.44025222 44.43689646 44.43353598 44.43017079 44.42680088 44.42342625 44.42004690 44.41666285 44.41327407 44.40988058 44.40648238 44.40307946 44.39967182 44.39625947 44.39284241 44.38942063 44.38599414 44.38256293 44.37912701 44.37568637 44.37224103 44.36879097 44.36533619 44.36187671 44.35841251 44.35494360 44.35146997 44.34799164
44.47148445 44.46814259 44.46479601 44.46144471 44.45808870 44.45472797 44.45136252 44.44799236 44.44461747 44.44123788 44.43785356 44.43446453 44.43107079 44.42767233 44.42426915 44.42086126 44.41744865 44.41403133 44.41060929 44.40718254 44.40375108 44.40031490 44.39687401 44.39342840 44.38997808 44.38652304 44.38306330 44.37959883 44.37612966 44.37265578 44.36917718
44.49267453 44.48933241 44.48598558 44.48263404 44.47927777 44.47591679 44.47255109 44.46918067 44.46580554 44.46242568 44.45904112 44.45565183 44.45225783 44.44885912 44.44545568 44.44204754 44.43863467 44.43521709 44.43179480 44.42836779 44.42493607 44.42149963 44.41805848 44.41461261 44.41116203 44.40770674 44.40424673 44.40078201 44.39731257 44.39383842 44.39035956
44.51386143 44.51051907 44.50717199 44.50382019 44.50046367 44.49710244 44.49373649 44.49036582 44.48699043 44.48361032 44.48022550 44.47683596 44.47344171 44.47004274 44.46663905 44.46323065 44.45981753 44.45639969 44.45297714 44.44954987 44.44611789 44.44268120 44.43923979 44.43579366 44.43234282 44.42888727 44.42542700 44.42196201 44.41849232 44.41501791 44.41153879
44.53504516 44.53170255 44.52835522 44.52500317 44.52164640 44.51828492 44.51491871 44.51154779 44.50817215 44.50479179 44.50140672 44.49801693 44.49462242 44.49122319 44.48781925 44.48441059 44.48099721 44.47757912 44.47415632 44.47072879 44.46729655 44.46385960 44.46041793 44.45697154 44.45352045 44.45006463 44.44660410 44.44313886 44.43966890 44.43619423 44.43271485
44.55622571 44.55288285 44.54953527 44.54618297 44.54282596 44.53946422 44.53609776 44.53272659 44.52935070 44.52597009 44.52258476 44.51919471 44.51579995 44.51240047 44.50899627 44.50558736 44.50217373 44.49875538 44.49533232 44.49190454 44.48847204 44.48503483 44.48159290 44.47814626 44.47469490 44.47123883 44.46777804 44.46431254 44.46084232 44.45736739 44.45388774
44.57740309 44.57405998 44.57071215 44.56735960 44.56400233 44.56064034 44.55727364 44.55390221 44.55052607 44.54714520 44.54375962 44.54036933 44.53697431 44.53357458 44.53017012 44.52676096 44.52334707 44.51992847 44.51650515 44.51307711 44.50964436 44.50620689 44.50276471 44.49931781 44.49586619 44.49240986 44.48894881 44.48548305 44.48201257 44.47853738 44.47505747
44.59857727 44.59523392 44.59188584 44.58853304 44.58517552 44.58181328 44.57844633 44.57507465 44.57169826 44.56831714 44.56493131 44.56154076 44.55814549 44.55474550 44.55134080 44.54793137 44.54451723 44.54109838 44.53767480 44.53424651 44.53081350 44.52737577 44.52393333 44.52048617 44.51703430 44.51357771 44.51011640 44.50665038 44.50317965 44.49970419 44.49622403
44.61974828 44.61640467 44.61305634 44.60970330 44.60634553 44.60298304 44.59961583 44.59624391 44.59286726 44.58948590 44.58609981 44.58270901 44.57931349 44.57591325 44.57250829 44.56909861 44.56568422 44.56226510 44.55884127 44.55541273 44.55197946 44.54854148 44.54509878 44.54165137 44.53819923 44.53474239 44.53128082 44.52781454 44.52434355 44.52086783 44.51738741
44.64091609 44.63757223 44.63422366 44.63087036 44.62751235 44.62414961 44.62078215 44.61740998 44.61403308 44.61065146 44.60726513 44.60387407 44.60047830 44.59707781 44.59367259 44.59026266 44.58684801 44.58342865 44.58000456 44.57657576 44.57314224 44.56970400 44.56626105 44.56281338 44.55936099 44.55590388 44.55244206 44.54897552 44.54550427 44.54202830 44.53854761
44.66208071 44.65873660 44.65538778 44.65203424 44.64867597 44.64531299 44.64194528 44.63857285 44.63519571 44.63181384 44.62842725 44.62503595 44.62163992 44.61823918 44.61483371 44.61142353 44.60800863 44.60458901 44.60116467 44.59773561 44.59430183 44.59086334 44.58742013 44.58397220 44.58051956 44.57706219 44.57360011 44.57013332 44.56666181 44.56318558 44.55970463
44.68324213 44.67989778 44.67654871 44.67319492 44.66983640 44.66647317 44.66310521 44.65973254 44.65635514 44.65297302 44.64958619 44.64619463 44.64279835 44.63939736 44.63599164 44.63258120 44.62916605 44.62574617 44.62232158 44.61889227 44.61545824 44.61201949 44.60857603 44.60512784 44.60167494 44.59821732 44.59475498 44.59128793 44.58781616 44.58433967 44.58085847
44.70440035 44.70105575 44.69770644 44.69435240 44.69099364 44.68763015 44.68426195 44.68088903 44.67751138 44.67412901 44.67074192 44.66735012 44.66395359 44.66055234 44.65714637 44.65373568 44.65032028 44.64690015 44.64347530 44.64004574 44.63661145 44.63317245 44.62972873 44.62628029 44.62282713 44.61936926 44.61590666 44.61243935 44.60896732 44.60549058 44.60200911
44.72555537 44.72221053 44.71886096 44.71550668 44.71214767 44.70878394 44.70541549 44.70204231 44.69866442 44.69528180 44.69189446 44.68850241 44.68510563 44.68170413 44.67829791 44.67488697 44.67147131 44.66805093 44.66462583 44.66119601 44.65776147 44.65432221 44.65087824 44.64742954 44.64397613 44.64051800 44.63705515 44.63358758 44.63011530 44.62663829 44.62315657
44.74670718 44.74336210 44.74001229 44.73665775 44.73329850 44.72993452 44.72656582 44.72319240 44.71981425 44.71643139 44.71304380 44.70965149 44.70625446 44.70285271 44.69944624 44.69603505 44.69261914 44.68919851 44.68577316 44.68234308 44.67890829 44.67546878 44.67202455 44.66857560 44.66512193 44.66166355 44.65820044 44.65473262 44.65126007 44.64778281 44.64430083
44.76785579 44.76451045 44.76116040 44.75780562 44.75444612 44.75108189 44.74771295 44.74433928 44.74096088 44.73757777 44.73418993 44.73079738 44.72740010 44.72399810 44.72059138 44.71717993 44.71376377 44.71034289 44.70691728 44.70348696 44.70005191 44.69661215 44.69316766 44.68971846 44.68626454 44.68280589 44.67934253 44.67587445 44.67240165 44.66892414 44.66544190
44.78900118 44.78565560 44.78230530 44.77895028 44.77559053 44.77222606 44.76885686 44.76548294 44.76210430 44.75872094 44.75533286 44.75194005 44.74854252 44.74514027 44.74173330 44.73832161 44.73490519 44.73148406 44.72805820 44.72462762 44.72119233 44.71775231 44.71430757 44.71085811 44.70740394 44.70394504 44.70048142 44.69701309 44.69354003 44.69006226 44.68657977
44.81014336 44.80679754 44.80344699 44.80009172 44.79673172 44.79336701 44.78999757 44.78662340 44.78324451 44.77986090 44.77647257 44.77307952 44.76968174 44.76627924 44.76287202 44.75946007 44.75604341 44.75262202 44.74919591 44.74576508 44.74232954 44.73888926 44.73544427 44.73199456 44.72854013 44.72508098 44.72161711 44.71814852 44.71467521 44.71119718 44.70771443
44.83128232 44.82793625 44.82458546 44.82122994 44.81786970 44.81450474 44.81113505 44.80776064 44.80438151 44.80099765 44.79760907 44.79421577 44.79081774 44.78741499 44.78400752 44.78059533 44.77717841 44.77375677 44.77033041 44.76689933 44.76346353 44.76002301 44.75657777 44.75312780 44.74967312 44.74621371 44.74274959 44.73928074 44.73580717 44.73232889 44.72884588
44.85241805 44.84907174 44.84572071 44.84236495 44.83900446 44.83563925 44.83226932 44.82889466 44.82551528 44.82213118 44.81874235 44.81534880 44.81195052 44.80854753 44.80513981 44.80172736 44.79831020 44.79488831 44.79146170 44.78803037 44.78459432 44.78115354 44.77770805 44.77425783 44.77080289 44.76734323 44.76387885 44.76040975 44.75693593 44.75345739 44.74997413
44.87355057 44.87020401 44.86685273 44.86349673 44.86013600 44.85677055 44.85340037 44.85002546 44.84664584 44.84326148 44.83987241 44.83647861 44.83308009 44.82967684 44.82626887 44.82285618 44.81943877 44.81601663 44.81258977 44.80915819 44.80572188 44.80228086 44.79883511 44.79538464 44.79192945 44.78846954 44.78500490 44.78153555 44.77806147 44.77458268 44.77109916
44.89467985 44.89133306 44.88798153 44.88462528 44.88126431 44.87789861 44.87452819 44.87115304 44.86777317 44.86438857 44.86099925 44.85760520 44.85420643 44.85080294 44.84739472 44.84398178 44.84056411 44.83714173 44.83371462 44.83028278 44.82684623 44.82340495 44.81995895 44.81650823 44.81305279 44.80959262 44.80612774 44.80265813 44.79918380 44.79570475 44.79222098
44.91580591 44.91245887 44.90910710 44.90575061 44.90238939 44.89902345 44.89565278 44.89227739 44.88889727 44.88551242 44.88212285 44.87872856 44.87532954 44.87192580 44.86851734 44.86510415 44.86168624 44.85826360 44.85483624 44.85140416 44.84796735 44.84452583 44.84107957 44.83762860 44.83417291 44.83071249 44.82724735 44.82377749 44.82030291 44.81682360 44.81333958
44.93692873 44.93358145 44.93022944 44.92687270 44.92351124 44.92014505 44.91677414 44.91339850 44.91001814 44.90663305 44.90324323 44.89984869 44.89644943 44.89304544 44.88963673 44.88622329 44.88280513 44.87938225 44.87595464 44.87252231 44.86908525 44.86564347 44.86219697 44.85874575 44.85528980 44.85182913 44.84836374 44.84489363 44.84141879 44.83793923 44.83445496
44.95804831 44.95470079 44.95134854 44.94799156 44.94462985 44.94126342 44.93789227 44.93451638 44.93113577 44.92775044 44.92436038 44.92096559 44.91756608 44.91416185 44.91075289 44.90733920 44.90392080 44.90049766 44.89706981 44.89363722 44.89019992 44.88675789 44.88331114 44.87985966 44.87640347 44.87294255 44.86947690 44.86600654 44.86253145 44.85905164 44.85556711
44.97916465 44.97581689 44.97246440 44.96910717 44.96574523 44.96237855 44.95900715 44.95563103 44.95225017 44.94886459 44.94547429 44.94207926 44.93867950 44.93527502 44.93186581 44.92845188 44.92503323 44.92160984 44.91818174 44.91474891 44.91131136 44.90786908 44.90442208 44.90097035 44.89751390 44.89405273 44.89058684 44.88711622 44.88364088 44.88016081 44.87667603
45.00027775 44.99692975 44.99357701 44.99021955 44.98685736 44.98349044 44.98011880 44.97674243 44.97336133 44.96997551 44.96658496 44.96318968 44.95978968 44.95638495 44.95297550 44.94956132 44.94614242 44.94271879 44.93929044 44.93585736 44.93241956 44.92897703 44.92552978 44.92207780 44.91862110 44.91515968 44.91169353 44.90822267 44.90474707 44.90126676 44.89778172
45.02138761 45.01803936 45.01468638 45.01132868 45.00796625 45.00459909 45.00122720 44.99785059 44.99446925 44.99108318 44.98769239 44.98429687 44.98089662 44.97749165 44.97408195 44.97066752 44.96724837 44.96382450 44.96039589 44.95696257 44.95352452 44.95008174 44.94663424 44.94318202 44.93972507 44.93626339 44.93279700 44.92932588 44.92585003 44.92236947 44.91888418
45.04249421 45.03914572 45.03579251 45.03243456 45.02907189 45.02570449 45.02233236 45.01895550 45.01557392 45.01218761 45.00879657 45.00540080 45.00200031 44.99859509 44.99518515 44.99177048 44.98835108 44.98492696 44.98149811 44.97806454 44.97462624 44.97118321 44.96773546 44.96428299 44.96082579 44.95736387 44.95389722 44.95042585 44.94694976 44.94346894 44.93998339
45.06359756 45.06024883 45.05689538 45.05353719 45.05017428 45.04680663 45.04343426 45.04005716 45.03667534 45.03328878 45.02989750 45.02650149 45.02310076 45.01969529 45.01628510 45.01287019 45.00945054 45.00602618 45.00259708 44.99916326 44.99572471 44.99228144 44.98883344 44.98538072 44.98192327 44.97846110 44.97499420 44.97152258 44.96804624 44.96456517 44.96107937
45.08469766 45.08134869 45.07799499 45.07463657 45.07127341 45.06790553 45.06453291 45.06115557 45.05777350 45.05438671 45.05099518 45.04759893 45.04419795 45.04079224 45.03738181 45.03396665 45.03054676 45.02712214 45.02369280 45.02025873 45.01681994 45.01337642 45.00992817 45.00647520 45.00301751 44.99955509 44.99608794 44.99261607 44.98913947 44.98565815 44.98217210
45.10579449 45.10244529 45.09909135 45.09573268 45.09236929 45.08900116 45.08562831 45.08225073 45.07886842 45.07548138 45.07208961 45.06869311 45.06529189 45.06188594 45.05847526 45.05505985 45.05163972 45.04821486 45.04478527 45.04135096 45.03791192 45.03446815 45.03101966 45.02756644 45.02410849 45.02064582 45.01717843 45.01370630 45.01022946 45.00674789 45.00326159
45.12688807 45.12353862 45.12018445 45.11682554 45.11346190 45.11009354 45.10672044 45.10334262 45.09996007 45.09657279 45.09318078 45.08978404 45.08638257 45.08297638 45.07956545 45.07614980 45.07272942 45.06930432 45.06587448 45.06243992 45.05900064 45.05555662 45.05210788 45.04865442 45.04519622 45.04173331 45.03826566 45.03479329 45.03131619 45.02783437 45.02434783
45.14797838 45.14462869 45.14127428 45.13791513 45.13455126 45.13118265 45.12780932 45.12443125 45.12104846 45.11766093 45.11426868 45.11087170 45.10746999 45.10406355 45.10065239 45.09723649 45.09381587 45.09039052 45.08696044 45.08352563 45.08008610 45.07664184 45.07319285 45.06973914 45.06628070 45.06281753 45.05934964 45.05587702 45.05239968 45.04891761 45.04543081
45.16906542 45.16571550 45.16236084 45.15900146 45.15563734 45.15226850 45.14889492 45.14551662 45.14213358 45.13874582 45.13535332 45.13195610 45.12855415 45.12514747 45.12173606 45.11831992 45.11489905 45.11147346 45.10804314 45.10460808 45.10116831 45.09772380 45.09427457 45.09082061 45.08736192 45.08389850 45.08043036 45.07695750 45.07347990 45.06999758 45.06651054
45.19014919 45.18679903 45.18344414 45.18008451 45.17672016 45.17335108 45.16997726 45.16659872 45.16321544 45.15982743 45.15643470 45.15303723 45.14963504 45.14622812 45.14281646 45.13940008 45.13597897 45.13255313 45.12912257 45.12568727 45.12224725 45.11880249 45.11535302 45.11189881 45.10843987 45.10497621 45.10150782 45.09803471 45.09455687 45.09107430 45.08758700
45.21122968 45.20787929 45.20452416 45.20116430 45.19779970 45.19443038 45.19105633 45.18767754 45.18429403 45.18090578 45.17751280 45.17411510 45.17071266 45.16730550 45.16389360 45.16047698 45.15705562 45.15362954 45.15019873 45.14676319 45.14332292 45.13987792 45.13642820 45.13297375 45.12951456 45.12605066 45.12258202 45.11910866 45.11563057 45.11214775 45.10866021
45.23230690 45.22895627 45.22560090 45.22224080 45.21887597 45.21550641 45.21213212 45.20875309 45.20536934 45.20198085 45.19858763 45.19518969 45.19178701 45.18837960 45.18496747 45.18155060 45.17812900 45.17470268 45.17127162 45.16783584 45.16439532 45.16095008 45.15750011 45.15404541 45.15058599 45.14712183 45.14365295 45.14017934 45.13670100 45.13321794 45.12973015
45.25338084 45.25002997 45.24667436 45.24331403 45.23994896 45.23657916 45.23320463 45.22982536 45.22644137 45.22305264 45.21965919 45.21626100 45.21285808 45.20945043 45.20603806 45.20262095 45.19919911 45.19577254 45.19234124 45.18890521 45.18546446 45.18201897 45.17856875 45.17511381 45.17165414 45.16818974 45.16472061 45.16124675 45.15776817 45.15428485 45.15079681
45.27445149 45.27110038 45.26774454 45.26438397 45.26101867 45.25764863 45.25427386 45.25089436 45.24751012 45.24412116 45.24072746 45.23732903 45.23392588 45.23051799 45.22710537 45.22368802 45.22026594 45.21683912 45.21340758 45.20997131 45.20653031 45.20308458 45.19963412 45.19617893 45.19271902 45.18925437 45.18578499 45.18231089 45.17883206 45.17534850 45.17186021
45.29551886 45.29216751 45.28881144 45.28545063 45.28208509 45.27871481 45.27533980 45.27196006 45.26857559 45.26518639 45.26179245 45.25839379 45.25499039 45.25158226 45.24816940 45.24475180 45.24132948 45.23790243 45.23447065 45.23103413 45.22759289 45.22414691 45.22069621 45.21724078 45.21378062 45.21031572 45.20684610 45.20337175 45.19989268 45.19640887 45.19292034
45.31658293 45.31323136 45.30987504 45.30651400 45.30314822 45.29977771 45.29640246 45.29302248 45.28963777 45.28624833 45.28285416 45.27945525 45.27605161 45.27264324 45.26923014 45.26581231 45.26238975 45.25896245 45.25553043 45.25209367 45.24865218 45.24520597 45.24175502 45.23829934 45.23483893 45.23137380 45.22790393 45.22442934 45.22095001 45.21746596 45.21397718
45.33764372 45.33429190 45.33093536 45.32757408 45.32420806 45.32083731 45.31746183 45.31408161 45.31069667 45.30730699 45.30391257 45.30051343 45.29710955 45.29370094 45.29028760 45.28686953 45.28344672 45.28001919 45.27658692 45.27314992 45.26970819 45.26626173 45.26281054 45.25935462 45.25589397 45.25242859 45.24895848 45.24548364 45.24200407 45.23851977 45.23503074
45.35870121 45.35534916 45.35199237 45.34863086 45.34526461 45.34189362 45.33851790 45.33513745 45.33175227 45.32836235 45.32496770 45.32156831 45.31816420 45.31475535 45.31134177 45.30792345 45.30450041 45.30107263 45.29764012 45.29420288 45.29076091 45.28731421 45.28386278 45.28040661 45.27694572 45.27348009 45.27000974 45.26653465 45.26305484 45.25957030 45.25608102
45.37975539 45.37640311 45.37304609 45.36968434 45.36631786 45.36294663 45.35957068 45.35618999 45.35280457 45.34941441 45.34601953 45.34261990 45.33921555 45.33580646 45.33239264 45.32897409 45.32555080 45.32212278 45.31869004 45.31525255 45.31181034 45.30836340 45.30491172 45.30145531 45.29799418 45.29452831 45.29105771 45.28758238 45.28410232 45.28061753 45.27712801
45.40080628 45.39745376 45.39409651 45.39073452 45.38736780 45.38399635 45.38062016 45.37723923 45.37385357 45.37046318 45.36706806 45.36366820 45.36026360 45.35685428 45.35344022 45.35002142 45.34659790 45.34316964 45.33973665 45.33629893 45.33285648 45.32940929 45.32595737 45.32250072 45.31903934 45.31557323 45.31210239 45.30862682 45.30514651 45.30166148 45.29817171
45.42185386 45.41850111 45.41514362 45.41178140 45.40841445 45.40504276 45.40166633 45.39828517 45.39489928 45.39150865 45.38811328 45.38471319 45.38130836 45.37789879 45.37448449 45.37106546 45.36764170 45.36421320 45.36077997 45.35734201 45.35389931 45.35045189 45.34699973 45.34354284 45.34008121 45.33661486 45.33314377 45.32966796 45.32618741 45.32270213 45.31921212
45.44289813 45.43954515 45.43618743 45.43282497 45.42945778 45.42608586 45.42270920 45.41932780 45.41594167 45.41255081 45.40915521 45.40575487 45.40234980 45.39894000 45.39552547 45.39210620 45.38868219 45.38525346 45.38181999 45.37838179 45.37493885 45.37149118 45.36803878 45.36458165 45.36111978 45.35765319 45.35418186 45.35070580 45.34722501 45.34373949 45.34024923
45.46393909 45.46058588 45.45722792 45.45386524 45.45049781 45.44712565 45.44374876 45.44036713 45.43698076 45.43358966 45.43019382 45.42679325 45.42338795 45.41997791 45.41656313 45.41314363 45.40971938 45.40629041 45.40285670 45.39941826 45.39597508 45.39252717 45.38907453 45.38561716 45.38215505 45.37868821 45.37521664 45.37174034 45.36825931 45.36477354 45.36128304
45.48497674 45.48162329 45.47826510 45.47490218 45.47153453 45.46816213 45.46478500 45.46140314 45.45801654 45.45462520 45.45122913 45.44782832 45.44442278 45.44101250 45.43759749 45.43417775 45.43075327 45.42732405 45.42389011 45.42045142 45.41700801 45.41355986 45.41010698 45.40664936 45.40318702 45.39971994 45.39624812 45.39277158 45.38929030 45.38580429 45.38231355
45.50601107 45.50265739 45.49929897 45.49593581 45.49256792 45.48919530 45.48581793 45.48243583 45.47904900 45.47565743 45.47226112 45.46886008 45.46545430 45.46204379 45.45862854 45.45520855 45.45178384 45.44835439 45.44492020 45.44148128 45.43803762 45.43458924 45.43113611 45.42767826 45.42421567 45.42074835 45.41727630 45.41379951 45.41031799 45.40683174 45.40334075
$ Bottom Bathymetry
-0.10   2.50  10  0.001000  1  1 '(....)'  NAME  'glw_ndfd_2p5.dep'
 99999  99999  99999  99999  99999  99999  99999  99999  99999  99999  99999  99999  99999  99999  99999  99999  99999  99999  99999  99999  99999  99999  99999  99999  99999  99999  99999  99999  99999  99999  99999 
 99999  99999  99999  99999  99999  99999  99999  99999  99999  99999  99999  99999  99999  99999  99999  99999  99999  99999  99999  99999  99999  99999  99999  99999  99999  99999  99999  99999  99999  99999  99999 
 99999  99999  99999  99999  99999  99999  99999  99999  99999  99999  99999  99999  99999  99999  99999  99999  99999  99999  99999  99999  99999  99999  99999  99999  99999  99999  99999  99999  99999  99999  99999 
 99999  99999  99999  99999  99999  99999  99999  99999  99999  99999  99999  99999  99999  99999  99999  99999  99999  99999  99999  99999  99999  99999  99999  99999  99999  99999  99999  99999  99999  99999  99999 
 99999  99999  99999  99999  99999  99999  99999  99999  99999  99999  99999  99999  99999  99999  99999  99999  99999  99999  99999  99999  99999  99999  99999  99999  99999  99999  99999  99999  99999  99999  99999 
 99999  99999  99999  99999  99999  99999  99999  99999  99999  99999  99999  99999  99999  99999  99999  99999  99999  99999  99999  99999  99999  99999  99999  99999  99999  99999  99999  99999  99999  99999  99999 
 99999  99999  99999  99999  99999  99999  99999  99999  99999  99999  99999  99999  99999  99999  99999  99999  99999  99999  99999  99999  99999  99999  99999  99999  99999  99999  99999  99999  99999  99999  99999 
 99999  99999  99999  99999  99999  99999  99999  99999  99999  99999  99999  99999  99999  99999  99999  99999  99999  99999  99999  99999  99999  99999  99999  99999  99999  99999  99999  99999  99999  99999  99999 
 99999  99999  99999  99999  99999  99999  99999  99999  99999  99999  99999  99999  99999  99999  99999  99999  99999  99999  99999  99999  99999  99999  99999  99999  99999  99999  99999  99999  99999  99999  99999 
 99999  99999  99999  99999  99999  99999  99999  99999  99999  99999  99999  99999  99999  99999  99999  99999  99999  99999  99999  99999  -100000  99999  99999  99999  99999  99999  99999  99999  99999  99999  99999 
 99999  99999  99999  99999  99999  99999  99999  99999  99999  99999  99999  99999  99999  99999  99999  99999  99999  99999  99999  99999  -100000  99999  99999  99999  99999  99999  99999  99999  99999  99999  99999 
 99999  99999  99999  99999  99999  99999  99999  99999  99999  99999  99999  99999  99999  99999  99999  99999  99999  99999  99999  99999  -100000  99999  99999  99999  99999  99999  99999  99999  99999  99999  99999 
 99999  99999  99999  99999  99999  99999  99999  99999  99999  99999  99999  99999  99999  99999  99999  99999  99999  99999  99999  99999  -100000  99999  99999  99999  99999  99999  99999  99999  99999  99999  99999 
 99999  99999  99999  99999  99999  99999  99999  99999  99999  99999  99999  99999  99999  99999  99999  99999  99999  99999  99999  -100000  99999  99999  99999  99999  99999  99999  99999  99999  99999  99999  99999 
 99999  99999  99999  99999  99999  99999  99999  99999  99999  99999  99999  99999  99999  99999  99999  99999  99999  99999  99999  -100000  99999  99999  99999  99999  99999  99999  99999  99999  99999  99999  99999 
 99999  99999  99999  99999  99999  99999  99999  99999  99999  99999  99999  99999  99999  99999  99999  99999  99999  99999  99999  99999  99999  99999  99999  99999  99999  99999  99999  99999  99999  99999  99999 
 99999  99999  99999  99999  99999  99999  99999  99999  99999  99999  99999  99999  99999  99999  99999  99999  99999  99999  99999  99999  99999  99999  99999  99999  99999  99999  99999  99999  99999  99999  99999 
 99999  99999  99999  99999  99999  99999  99999  99999  99999  99999  99999  99999  99999  99999  99999  99999  99999  99999  -100000  99999  99999  99999  99999  99999  99999  99999  99999  99999  99999  99999  99999 
 99999  99999  99999  99999  99999  99999  99999  99999  99999  99999  99999  99999  99999  99999  99999  99999  99999  -100000  99999  99999  99999  99999  99999  99999  99999  99999  99999  99999  99999  99999  99999 
 99999  99999  99999  99999  99999  99999  99999  99999  99999  99999  99999  99999  99999  99999  99999  99999  99999  -100000  99999  99999  99999  99999  99999  99999  99999  99999  99999  99999  99999  99999  99999 
 99999  99999  99999  99999  99999  99999  99999  99999  99999  99999  99999  99999  99999  99999  99999  99999  99999  -100000  99999  99999  99999  99999  99999  99999  99999  99999  99999  99999  99999  99999  99999 
 99999  99999  99999  99999  99999  99999  99999  99999  99999  99999  99999  99999  99999  99999  99999  99999  99999  -100000  99999  99999  99999  99999  99999  99999  99999  99999  99999  99999  99999  99999  99999 
 99999  99999  99999  99999  99999  99999  99999  99999  99999  99999  99999  99999  99999  99999  99999  -100000  99999  -100000  99999  99999  99999  99999  99999  99999  99999  99999  99999  99999  99999  99999  99999 
 99999  99999  99999  99999  99999  99999  99999  99999  99999  99999  99999  99999  99999  99999  99999  -100000  -100000  99999  99999  99999  99999  99999  99999  99999  99999  99999  99999  99999  99999  99999  99999 
 99999  99999  99999  99999  99999  99999  99999  99999  99999  99999  99999  99999  99999  99999  99999  -100000  99999  99999  99999  99999  99999  99999  99999  99999  99999  99999  99999  99999  99999  99999  99999 
 99999  99999  99999  99999  99999  99999  99999  99999  99999  99999  99999  99999  99999  99999  99999  -100000  99999  99999  99999  99999  99999  99999  99999  99999  99999  99999  99999  99999  99999  99999  99999 
 99999  99999  99999  99999  99999  99999  99999  99999  99999  99999  99999  99999  99999  99999  99999  -100000  -100000  99999  99999  99999  99999  99999  99999  99999  99999  99999  99999  99999  99999  99999  99999 
 99999  99999  99999  99999  99999  99999  99999  99999  99999  99999  99999  99999  99999  99999  99999  99999  -100000  99999  99999  99999  99999  99999  99999  99999  99999  99999  99999  99999  99999  99999  99999 
 99999  99999  99999  99999  99999  99999  99999  99999  99999  99999  99999  99999  99999  99999  99999  99999  -100000  -100000  99999  99999  99999  99999  99999  99999  99999  99999  99999  99999  99999  99999  99999 
 99999  99999  99999  99999  99999  99999  99999  99999  99999  99999  99999  99999  99999  99999  99999  99999  -100000  -100000  99999  99999  99999  99999  99999  99999  99999  99999  99999  99999  99999  99999  99999 
 99999  99999  99999  99999  99999  99999  99999  99999  99999  99999  99999  99999  99999  99999  99999  -100000  -100000  99999  99999  99999  99999  99999  99999  99999  99999  99999  99999  99999  99999  99999  99999 
 99999  99999  99999  99999  99999  99999  99999  99999  99999  99999  99999  99999  99999  99999  99999  99999  -100000  99999  99999  99999  99999  99999  99999  99999  99999  99999  99999  99999  99999  99999  99999 
 99999  99999  99999  99999  99999  99999  99999  99999  99999  99999  99999  99999  99999  99999  99999  99999  99999  -100000  -100000  99999  99999  99999  99999  99999  99999  99999  99999  99999  99999  99999  99999 
 99999  99999  99999  99999  99999  99999  99999  99999  99999  99999  99999  99999  99999  99999  99999  99999  99999  -100000  -100000  99999  99999  99999  99999  99999  99999  99999  99999  99999  99999  99999  99999 
 99999  99999  99999  99999  99999  99999  99999  99999  99999  99999  99999  99999  99999  99999  99999  99999  99999  99999  -100000  -100000  99999  99999  99999  99999  99999  99999  99999  99999  99999  99999  99999 
 99999  99999  99999  99999  99999  99999  99999  99999  99999  99999  99999  99999  99999  99999  99999  99999  99999  -100000  -100000  99999  99999  99999  99999  99999  99999  99999  99999  99999  99999  99999  99999 
 99999  99999  99999  99999  99999  99999  99999  99999  99999  99999  99999  99999  99999  99999  99999  99999  99999  -100000  99999  99999  99999  99999  99999  99999  99999  99999  99999  99999  99999  99999  99999 
 99999  99999  99999  99999  99999  99999  99999  99999  99999  99999  99999  99999  99999  99999  99999  99999  99999  -100000  -100000  99999  99999  99999  99999  99999  99999  99999  99999  99999  99999  99999  99999 
 99999  99999  99999  99999  99999  99999  99999  99999  99999  99999  99999  99999  99999  99999  99999  99999  -100000  -100000  -100000  99999  99999  99999  99999  99999  99999  99999  99999  99999  99999  99999  99999 
[...]
 99999  99999  99999  99999  99999  99999  99999  99999  99999  99999  99999  99999  99999  99999  -100000  -100000  -100000  -100000  -100000  99999  99999  99999  99999  99999  99999  99999  99999  99999  99999  99999  99999 
 99999  99999  99999  99999  99999  99999  99999  99999  99999  99999  99999  99999  99999  99999  -100000  -100000  -100000  -100000  -100000  -100000  99999  99999  99999  99999  99999  99999  99999  99999  99999  99999  99999 
 99999  99999  99999  99999  99999  99999  99999  99999  99999  99999  99999  99999  99999  99999  -100000  -100000  -100000  -100000  -100000  -100000  99999  99999  99999  99999  99999  99999  99999  99999  99999  99999  99999 
 99999  99999  99999  99999  99999  99999  99999  99999  99999  99999  99999  99999  99999  -100000  -100000  -100000  -100000  -100000  -100000  -100000  99999  99999  99999  99999  99999  99999  99999  99999  99999  99999  99999 
 99999  99999  99999  99999  99999  99999  99999  99999  99999  99999  99999  99999  99999  99999  -100000  -100000  -100000  -100000  -100000  99999  99999  99999  99999  99999  99999  99999  99999  99999  99999  99999  99999 
 99999  99999  99999  99999  99999  99999  99999  99999  99999  99999  99999  99999  99999  -100000  -100000  -100000  -100000  -100000  99999  99999  99999  99999  99999  99999  99999  99999  99999  99999  99999  99999  99999 
 99999  99999  99999  99999  99999  99999  99999  99999  99999  99999  99999  99999  99999  -100000  -100000  -100000  -100000  99999  99999  99999  99999  99999  99999  99999  99999  99999  99999  99999  99999  99999  99999 
 99999  99999  99999  99999  99999  99999  99999  99999  99999  99999  99999  99999  -100000  -100000  -100000  -100000  -100000  -100000  -100000  -100000  99999  99999  99999  99999  99999  99999  99999  99999  99999  99999  99999 
 99999  99999  99999  99999  99999  99999  99999  99999  99999  99999  99999  99999  -100000  -100000  -100000  -100000  -100000  -100000  -100000  -100000  99999  99999  99999  99999  99999  99999  99999  99999  99999  99999  99999 
 99999  99999  99999  99999  99999  99999  99999  99999  99999  99999  99999  -100000  -100000  -100000  -100000  -100000  -100000  -100000  -100000  99999  99999  99999  99999  99999  99999  99999  99999  99999  99999  99999  99999 
 99999  99999  99999  99999  99999  99999  99999  99999  99999  99999  99999  99999  -100000  -100000  -100000  -100000  -100000  -100000  99999  99999  99999  99999  99999  99999  99999  99999  99999  99999  99999  99999  99999 
 99999  99999  99999  99999  99999  99999  99999  99999  99999  99999  99999  -100000  -100000  -100000  -100000  -100000  -100000  -100000  -100000  99999  99999  99999  99999  99999  99999  99999  99999  99999  99999  99999  99999 
 99999  99999  99999  99999  99999  99999  99999  99999  99999  99999  99999  -100000  -100000  -100000  -100000  -100000  -100000  -100000  -100000  99999  99999  99999  99999  99999  99999  99999  99999  99999  99999  99999  99999 
 99999  99999  99999  99999  99999  99999  99999  99999  99999  99999  99999  -100000  99999  -100000  -100000  -100000  -100000  -100000  -100000  99999  99999  99999  99999  99999  99999  99999  99999  99999  99999  99999  99999 
 99999  99999  99999  99999  99999  99999  99999  99999  99999  99999  99999  99999  -100000  -100000  -100000  -100000  -100000  -100000  99999  99999  99999  99999  99999  99999  99999  99999  99999  99999  99999  99999  99999 
 99999  99999  99999  99999  99999  99999  99999  99999  99999  99999  99999  99999  -100000  -100000  -100000  -100000  -100000  -100000  -100000  99999  99999  99999  99999  99999  99999  99999  99999  99999  99999  99999  99999 
 99999  99999  99999  99999  99999  99999  99999  99999  99999  99999  99999  99999  -100000  -100000  -100000  -100000  -100000  -100000  -100000  99999  99999  99999  99999  99999  99999  99999  99999  99999  99999  99999  99999 
 99999  99999  99999  99999  99999  99999  99999  99999  99999  99999  99999  99999  99999  -100000  -100000  -100000  -100000  -100000  -100000  -100000  99999  99999  99999  99999  99999  99999  99999  99999  99999  99999  99999 
 99999  99999  99999  99999  99999  99999  99999  99999  99999  99999  99999  99999  -100000  -100000  -100000  -100000  -100000  -100000  -100000  -100000  99999  99999  99999  99999  99999  99999  99999  99999  99999  99999  99999 
 99999  99999  99999  99999  99999  99999  99999  99999  99999  99999  99999  -100000  -100000  -100000  -100000  -100000  -100000  -100000  -100000  99999  99999  99999  99999  99999  99999  99999  99999  99999  99999  99999  99999 
 99999  99999  99999  99999  99999  99999  99999  99999  99999  99999  99999  -100000  -100000  -100000  -100000  -100000  -100000  -100000  99999  99999  99999  99999  99999  99999  99999  99999  99999  99999  99999  99999  99999 
 99999  99999  99999  99999  99999  99999  99999  99999  99999  99999  99999  99999  -100000  -100000  99999  -100000  -100000  -100000  99999  99999  99999  99999  99999  99999  99999  99999  99999  99999  99999  99999  99999 
 99999  99999  99999  99999  99999  99999  99999  99999  99999  99999  99999  -100000  -100000  -100000  99999  -100000  -100000  -100000  99999  99999  99999  99999  99999  99999  99999  99999  99999  99999  99999  99999  99999 
 99999  99999  99999  99999  99999  99999  99999  99999  99999  99999  99999  -100000  -100000  -100000  99999  -100000  -100000  -100000  99999  99999  99999  99999  99999  99999  99999  99999  99999  99999  99999  99999  99999 
 99999  99999  99999  99999  99999  99999  99999  99999  99999  99999  99999  -100000  -100000  99999  99999  -100000  -100000  -100000  99999  99999  99999  99999  99999  99999  99999  99999  99999  99999  99999  99999  99999 
 99999  99999  99999  99999  99999  99999  99999  99999  99999  99999  99999  99999  -100000  99999  99999  -100000  99999  99999  99999  99999  99999  99999  99999  99999  99999  99999  99999  99999  99999  99999  99999 
 99999  99999  99999  99999  99999  99999  99999  99999  99999  99999  99999  -100000  -100000  99999  99999  99999  99999  99999  99999  99999  99999  99999  99999  99999  99999  99999  99999  99999  99999  99999  99999 
 99999  99999  99999  99999  99999  99999  99999  99999  99999  99999  99999  99999  99999  99999  99999  99999  -100000  99999  -100000  -100000  99999  99999  99999  99999  99999  99999  99999  99999  99999  99999  99999 
 99999  99999  99999  99999  99999  99999  99999  99999  99999  99999  99999  -100000  99999  99999  99999  99999  -100000  -100000  99999  -100000  99999  99999  99999  99999  99999  99999  99999  99999  99999  99999  99999 
 99999  99999  99999  99999  99999  99999  99999  99999  99999  99999  99999  99999  99999  99999  99999  99999  99999  -100000  -100000  -100000  99999  99999  99999  99999  99999  99999  99999  99999  99999  99999  99999 
 99999  99999  99999  99999  99999  99999  99999  99999  99999  99999  99999  99999  99999  99999  99999  99999  99999  -100000  -100000  -100000  99999  99999  99999  99999  99999  99999  99999  99999  99999  99999  99999 
 99999  99999  99999  99999  99999  99999  99999  99999  99999  99999  99999  99999  99999  99999  99999  99999  99999  99999  -100000  -100000  99999  99999  99999  99999  99999  99999  99999  99999  99999  99999  99999 
 99999  99999  99999  99999  99999  99999  99999  99999  99999  99999  99999  99999  99999  99999  99999  99999  99999  99999  99999  99999  99999  99999  99999  99999  99999  99999  99999  99999  99999  99999  99999 
 99999  99999  99999  99999  99999  99999  99999  99999  99999  99999  99999  99999  99999  -100000  99999  99999  99999  99999  99999  99999  99999  99999  99999  99999  99999  99999  99999  99999  99999  99999  99999 
 99999  99999  99999  99999  99999  99999  99999  99999  99999  99999  99999  99999  99999  99999  99999  99999  99999  99999  99999  99999  99999  99999  99999  99999  99999  99999  99999  99999  99999  99999  99999 
 99999  99999  99999  99999  99999  99999  99999  99999  99999  99999  99999  99999  99999  -100000  99999  99999  99999  99999  99999  99999  99999  99999  99999  99999  99999  99999  99999  99999  99999  99999  99999 
 99999  99999  99999  99999  99999  99999  99999  99999  99999  99999  99999  99999  99999  -100000  99999  99999  99999  99999  99999  99999  99999  99999  99999  99999  99999  99999  99999  99999  99999  99999  99999 
 99999  99999  99999  99999  99999  99999  99999  99999  99999  99999  99999  99999  99999  99999  99999  99999  99999  99999  99999  99999  99999  99999  99999  99999  99999  99999  99999  99999  99999  99999  99999 
 99999  99999  99999  99999  99999  99999  99999  99999  99999  99999  99999  99999  99999  99999  99999  99999  99999  99999  99999  99999  99999  99999  99999  99999  99999  99999  99999  99999  99999  99999  99999 
 99999  99999  99999  99999  99999  99999  99999  99999  99999  99999  99999  99999  99999  99999  99999  99999  99999  99999  99999  99999  99999  99999  99999  99999  99999  99999  99999  99999  99999  99999  99999 
 99999  99999  99999  99999  99999  99999  99999  99999  99999  99999  99999  99999  99999  99999  99999  99999  99999  99999  99999  99999  99999  99999  99999  99999  99999  99999  99999  99999  99999  99999  99999 
 99999  99999  99999  99999  99999  99999  99999  99999  99999  99999  99999  99999  99999  99999  99999  99999  99999  99999  99999  99999  99999  99999  99999  99999  99999  99999  99999  99999  99999  99999  99999 
 99999  99999  99999  99999  99999  99999  99999  99999  99999  99999  99999  99999  -100000  99999  99999  99999  99999  99999  99999  99999  99999  99999  99999  99999  99999  99999  99999  99999  99999  99999  99999 
 99999  99999  99999  99999  99999  99999  99999  99999  99999  99999  99999  99999  99999  99999  99999  99999  99999  99999  99999  99999  99999  99999  99999  99999  99999  99999  99999  99999  99999  99999  99999 
 99999  99999  99999  99999  99999  99999  99999  99999  99999  99999  99999  99999  99999  99999  99999  99999  99999  99999  99999  99999  99999  99999  99999  99999  99999  99999  99999  99999  99999  99999  99999 
 99999  99999  99999  99999  99999  99999  99999  99999  99999  99999  99999  99999  99999  99999  99999  99999  99999  99999  99999  99999  99999  99999  99999  99999  99999  99999  99999  99999  99999  99999  99999 
 99999  99999  99999  99999  99999  99999  99999  99999  99999  99999  99999  99999  99999  99999  99999  99999  99999  99999  99999  99999  99999  99999  99999  99999  99999  99999  99999  99999  99999  99999  99999 
 99999  99999  99999  99999  99999  99999  99999  99999  99999  99999  99999  99999  99999  99999  99999  99999  99999  99999  99999  99999  99999  99999  99999  99999  99999  99999  99999  99999  99999  99999  99999 
 99999  99999  99999  99999  99999  99999  99999  99999  99999  99999  99999  99999  99999  99999  99999  99999  99999  99999  99999  99999  99999  99999  99999  99999  99999  99999  99999  99999  99999  99999  99999 
 99999  99999  99999  99999  99999  99999  99999  99999  99999  99999  99999  99999  99999  99999  99999  99999  99999  99999  99999  99999  99999  99999  99999  99999  99999  99999  99999  99999  99999  99999  99999 
$
              10        1 1 '(....)' 'NAME' 'glw_ndfd_2p5.mask'
 0  0  0  0  0  0  0  0  0  0  0  0  0  0  0  0  0  0  0  0  0  0  0  0  0  0  0  0  0  0  0 
 0  0  0  0  0  0  0  0  0  0  0  0  0  0  0  0  0  0  0  0  0  0  0  0  0  0  0  0  0  0  0 
 0  0  0  0  0  0  0  0  0  0  0  0  0  0  0  0  0  0  0  0  0  0  0  0  0  0  0  0  0  0  0 
 0  0  0  0  0  0  0  0  0  0  0  0  0  0  0  0  0  0  0  0  0  0  0  0  0  0  0  0  0  0  0 
 0  0  0  0  0  0  0  0  0  0  0  0  0  0  0  0  0  0  0  0  0  0  0  0  0  0  0  0  0  0  0 
 0  0  0  0  0  0  0  0  0  0  0  0  0  0  0  0  0  0  0  0  0  0  0  0  0  0  0  0  0  0  0 
 0  0  0  0  0  0  0  0  0  0  0  0  0  0  0  0  0  0  0  0  0  0  0  0  0  0  0  0  0  0  0 
 0  0  0  0  0  0  0  0  0  0  0  0  0  0  0  0  0  0  0  0  0  0  0  0  0  0  0  0  0  0  0 
 0  0  0  0  0  0  0  0  0  0  0  0  0  0  0  0  0  0  0  0  0  0  0  0  0  0  0  0  0  0  0 
 0  0  0  0  0  0  0  0  0  0  0  0  0  0  0  0  0  0  0  0  1  0  0  0  0  0  0  0  0  0  0 
 0  0  0  0  0  0  0  0  0  0  0  0  0  0  0  0  0  0  0  0  1  0  0  0  0  0  0  0  0  0  0 
 0  0  0  0  0  0  0  0  0  0  0  0  0  0  0  0  0  0  0  0  1  0  0  0  0  0  0  0  0  0  0 
 0  0  0  0  0  0  0  0  0  0  0  0  0  0  0  0  0  0  0  0  1  0  0  0  0  0  0  0  0  0  0 
 0  0  0  0  0  0  0  0  0  0  0  0  0  0  0  0  0  0  0  1  0  0  0  0  0  0  0  0  0  0  0 
 0  0  0  0  0  0  0  0  0  0  0  0  0  0  0  0  0  0  0  1  0  0  0  0  0  0  0  0  0  0  0 
 0  0  0  0  0  0  0  0  0  0  0  0  0  0  0  0  0  0  0  0  0  0  0  0  0  0  0  0  0  0  0 
 0  0  0  0  0  0  0  0  0  0  0  0  0  0  0  0  0  0  0  0  0  0  0  0  0  0  0  0  0  0  0 
 0  0  0  0  0  0  0  0  0  0  0  0  0  0  0  0  0  0  1  0  0  0  0  0  0  0  0  0  0  0  0 
 0  0  0  0  0  0  0  0  0  0  0  0  0  0  0  0  0  1  0  0  0  0  0  0  0  0  0  0  0  0  0 
 0  0  0  0  0  0  0  0  0  0  0  0  0  0  0  0  0  1  0  0  0  0  0  0  0  0  0  0  0  0  0 
 0  0  0  0  0  0  0  0  0  0  0  0  0  0  0  0  0  1  0  0  0  0  0  0  0  0  0  0  0  0  0 
 0  0  0  0  0  0  0  0  0  0  0  0  0  0  0  0  0  1  0  0  0  0  0  0  0  0  0  0  0  0  0 
 0  0  0  0  0  0  0  0  0  0  0  0  0  0  0  1  0  1  0  0  0  0  0  0  0  0  0  0  0  0  0 
 0  0  0  0  0  0  0  0  0  0  0  0  0  0  0  1  1  0  0  0  0  0  0  0  0  0  0  0  0  0  0 
 0  0  0  0  0  0  0  0  0  0  0  0  0  0  0  1  0  0  0  0  0  0  0  0  0  0  0  0  0  0  0 
 0  0  0  0  0  0  0  0  0  0  0  0  0  0  0  1  0  0  0  0  0  0  0  0  0  0  0  0  0  0  0 
 0  0  0  0  0  0  0  0  0  0  0  0  0  0  0  1  1  0  0  0  0  0  0  0  0  0  0  0  0  0  0 
 0  0  0  0  0  0  0  0  0  0  0  0  0  0  0  0  1  0  0  0  0  0  0  0  0  0  0  0  0  0  0 
 0  0  0  0  0  0  0  0  0  0  0  0  0  0  0  0  1  1  0  0  0  0  0  0  0  0  0  0  0  0  0 
 0  0  0  0  0  0  0  0  0  0  0  0  0  0  0  0  1  1  0  0  0  0  0  0  0  0  0  0  0  0  0 
 0  0  0  0  0  0  0  0  0  0  0  0  0  0  0  1  1  0  0  0  0  0  0  0  0  0  0  0  0  0  0 
 0  0  0  0  0  0  0  0  0  0  0  0  0  0  0  0  1  0  0  0  0  0  0  0  0  0  0  0  0  0  0 
 0  0  0  0  0  0  0  0  0  0  0  0  0  0  0  0  0  1  1  0  0  0  0  0  0  0  0  0  0  0  0 
 0  0  0  0  0  0  0  0  0  0  0  0  0  0  0  0  0  1  1  0  0  0  0  0  0  0  0  0  0  0  0 
 0  0  0  0  0  0  0  0  0  0  0  0  0  0  0  0  0  0  1  1  0  0  0  0  0  0  0  0  0  0  0 
 0  0  0  0  0  0  0  0  0  0  0  0  0  0  0  0  0  1  1  0  0  0  0  0  0  0  0  0  0  0  0 
 0  0  0  0  0  0  0  0  0  0  0  0  0  0  0  0  0  1  0  0  0  0  0  0  0  0  0  0  0  0  0 
 0  0  0  0  0  0  0  0  0  0  0  0  0  0  0  0  0  1  1  0  0  0  0  0  0  0  0  0  0  0  0 
 0  0  0  0  0  0  0  0  0  0  0  0  0  0  0  0  1  1  1  0  0  0  0  0  0  0  0  0  0  0  0 
 0  0  0  0  0  0  0  0  0  0  0  0  0  0  0  0  1  1  1  0  0  0  0  0  0  0  0  0  0  0  0 
 0  0  0  0  0  0  0  0  0  0  0  0  0  0  1  1  1  1  1  0  0  0  0  0  0  0  0  0  0  0  0 
 0  0  0  0  0  0  0  0  0  0  0  0  0  0  1  1  1  1  1  0  0  0  0  0  0  0  0  0  0  0  0 
 0  0  0  0  0  0  0  0  0  0  0  0  0  0  1  1  1  1  1  1  0  0  0  0  0  0  0  0  0  0  0 
 0  0  0  0  0  0  0  0  0  0  0  0  0  0  1  1  1  1  1  1  0  0  0  0  0  0  0  0  0  0  0 
 0  0  0  0  0  0  0  0  0  0  0  0  0  1  1  1  1  1  1  1  0  0  0  0  0  0  0  0  0  0  0 
 0  0  0  0  0  0  0  0  0  0  0  0  0  0  1  1  1  1  1  0  0  0  0  0  0  0  0  0  0  0  0 
 0  0  0  0  0  0  0  0  0  0  0  0  0  1  1  1  1  1  0  0  0  0  0  0  0  0  0  0  0  0  0 
 0  0  0  0  0  0  0  0  0  0  0  0  0  1  1  1  1  0  0  0  0  0  0  0  0  0  0  0  0  0  0 
 0  0  0  0  0  0  0  0  0  0  0  0  1  1  1  1  1  1  1  1  0  0  0  0  0  0  0  0  0  0  0 
 0  0  0  0  0  0  0  0  0  0  0  0  1  1  1  1  1  1  1  1  0  0  0  0  0  0  0  0  0  0  0 
 0  0  0  0  0  0  0  0  0  0  0  1  1  1  1  1  1  1  1  0  0  0  0  0  0  0  0  0  0  0  0 
 0  0  0  0  0  0  0  0  0  0  0  0  1  1  1  1  1  1  0  0  0  0  0  0  0  0  0  0  0  0  0 
 0  0  0  0  0  0  0  0  0  0  0  1  1  1  1  1  1  1  1  0  0  0  0  0  0  0  0  0  0  0  0 
 0  0  0  0  0  0  0  0  0  0  0  1  1  1  1  1  1  1  1  0  0  0  0  0  0  0  0  0  0  0  0 
 0  0  0  0  0  0  0  0  0  0  0  1  0  1  1  1  1  1  1  0  0  0  0  0  0  0  0  0  0  0  0 
 0  0  0  0  0  0  0  0  0  0  0  0  1  1  1  1  1  1  0  0  0  0  0  0  0  0  0  0  0  0  0 
 0  0  0  0  0  0  0  0  0  0  0  0  1  1  1  1  1  1  1  0  0  0  0  0  0  0  0  0  0  0  0 
 0  0  0  0  0  0  0  0  0  0  0  0  1  1  1  1  1  1  1  0  0  0  0  0  0  0  0  0  0  0  0 
 0  0  0  0  0  0  0  0  0  0  0  0  0  1  1  1  1  1  1  1  0  0  0  0  0  0  0  0  0  0  0 
 0  0  0  0  0  0  0  0  0  0  0  0  1  1  1  1  1  1  1  1  0  0  0  0  0  0  0  0  0  0  0 
 0  0  0  0  0  0  0  0  0  0  0  1  1  1  1  1  1  1  1  0  0  0  0  0  0  0  0  0  0  0  0 
 0  0  0  0  0  0  0  0  0  0  0  1  1  1  1  1  1  1  0  0  0  0  0  0  0  0  0  0  0  0  0 
 0  0  0  0  0  0  0  0  0  0  0  0  1  1  0  1  1  1  0  0  0  0  0  0  0  0  0  0  0  0  0 
 0  0  0  0  0  0  0  0  0  0  0  1  1  1  0  1  1  1  0  0  0  0  0  0  0  0  0  0  0  0  0 
 0  0  0  0  0  0  0  0  0  0  0  1  1  1  0  1  1  1  0  0  0  0  0  0  0  0  0  0  0  0  0 
 0  0  0  0  0  0  0  0  0  0  0  1  1  0  0  1  1  1  0  0  0  0  0  0  0  0  0  0  0  0  0 
 0  0  0  0  0  0  0  0  0  0  0  0  1  0  0  1  0  0  0  0  0  0  0  0  0  0  0  0  0  0  0 
 0  0  0  0  0  0  0  0  0  0  0  1  1  0  0  0  0  0  0  0  0  0  0  0  0  0  0  0  0  0  0 
 0  0  0  0  0  0  0  0  0  0  0  0  0  0  0  0  1  0  1  1  0  0  0  0  0  0  0  0  0  0  0 
 0  0  0  0  0  0  0  0  0  0  0  1  0  0  0  0  1  1  0  1  0  0  0  0  0  0  0  0  0  0  0 
 0  0  0  0  0  0  0  0  0  0  0  0  0  0  0  0  0  1  1  1  0  0  0  0  0  0  0  0  0  0  0 
 0  0  0  0  0  0  0  0  0  0  0  0  0  0  0  0  0  1  1  1  0  0  0  0  0  0  0  0  0  0  0 
 0  0  0  0  0  0  0  0  0  0  0  0  0  0  0  0  0  0  1  1  0  0  0  0  0  0  0  0  0  0  0 
 0  0  0  0  0  0  0  0  0  0  0  0  0  0  0  0  0  0  0  0  0  0  0  0  0  0  0  0  0  0  0 
 0  0  0  0  0  0  0  0  0  0  0  0  0  1  0  0  0  0  0  0  0  0  0  0  0  0  0  0  0  0  0 
 0  0  0  0  0  0  0  0  0  0  0  0  0  0  0  0  0  0  0  0  0  0  0  0  0  0  0  0  0  0  0 
 0  0  0  0  0  0  0  0  0  0  0  0  0  1  0  0  0  0  0  0  0  0  0  0  0  0  0  0  0  0  0 
 0  0  0  0  0  0  0  0  0  0  0  0  0  1  0  0  0  0  0  0  0  0  0  0  0  0  0  0  0  0  0 
 0  0  0  0  0  0  0  0  0  0  0  0  0  0  0  0  0  0  0  0  0  0  0  0  0  0  0  0  0  0  0 
 0  0  0  0  0  0  0  0  0  0  0  0  0  0  0  0  0  0  0  0  0  0  0  0  0  0  0  0  0  0  0 
 0  0  0  0  0  0  0  0  0  0  0  0  0  0  0  0  0  0  0  0  0  0  0  0  0  0  0  0  0  0  0 
 0  0  0  0  0  0  0  0  0  0  0  0  0  0  0  0  0  0  0  0  0  0  0  0  0  0  0  0  0  0  0 
 0  0  0  0  0  0  0  0  0  0  0  0  0  0  0  0  0  0  0  0  0  0  0  0  0  0  0  0  0  0  0 
 0  0  0  0  0  0  0  0  0  0  0  0  1  0  0  0  0  0  0  0  0  0  0  0  0  0  0  0  0  0  0 
 0  0  0  0  0  0  0  0  0  0  0  0  0  0  0  0  0  0  0  0  0  0  0  0  0  0  0  0  0  0  0 
 0  0  0  0  0  0  0  0  0  0  0  0  0  0  0  0  0  0  0  0  0  0  0  0  0  0  0  0  0  0  0 
 0  0  0  0  0  0  0  0  0  0  0  0  0  0  0  0  0  0  0  0  0  0  0  0  0  0  0  0  0  0  0 
 0  0  0  0  0  0  0  0  0  0  0  0  0  0  0  0  0  0  0  0  0  0  0  0  0  0  0  0  0  0  0 
 0  0  0  0  0  0  0  0  0  0  0  0  0  0  0  0  0  0  0  0  0  0  0  0  0  0  0  0  0  0  0 
 0  0  0  0  0  0  0  0  0  0  0  0  0  0  0  0  0  0  0  0  0  0  0  0  0  0  0  0  0  0  0 
 0  0  0  0  0  0  0  0  0  0  0  0  0  0  0  0  0  0  0  0  0  0  0  0  0  0  0  0  0  0  0 
$
      0.      0.    0.    0.       0
$
$ End of input file
